/*--------------------------------*- C++ -*----------------------------------*\
| =========                 |                                                 |
| \\      /  F ield         | OpenFOAM: The Open Source CFD Toolbox           |
|  \\    /   O peration     | Version:  2.2.2                               |
|   \\  /    A nd           | Web:      www.OpenFOAM.org                      |
|    \\/     M anipulation  |                                                 |
\*---------------------------------------------------------------------------*/
FoamFile
{
    version     2.0;
    format      ascii;
    class       dictionary;
    location    "system";
    object      controlDict;
}
// * * * * * * * * * * * * * * * * * * * * * * * * * * * * * * * * * * * * * //

libs ( "libOpenFOAM.so" "libgroovyBC.so" "libporousCompressibleRASModels.so")

application     urbanMicroclimateFoam;

startFrom       latestTime;

startTime       0;

stopAt          endTime;

endTime         172800;

deltaT          600;

writeControl    timeStep;

writeInterval   1;

purgeWrite      0;

writeFormat     ascii;

writePrecision  6;

writeCompression on;

timeFormat      general;

timePrecision   12;

runTimeModifiable true;

functions
{
	/*sysCall
	{	
        	type systemCall;
	        functionObjectLibs ( "libsystemCall.so" );
		region street;
	        executeCalls 0();
        	endCalls 0();
	        writeCalls 1("./reconstructScript");
	        outputControl outputTime;
		outputInterval 6;
	}/*
	probe1
    	{
		type            probes;
		functionObjectLibs ("libsampling.so");
		enabled         true;
		outputControl   timeStep;
		outputInterval  1;
		region		air;

        fields
        (
            T w
        );

        probeLocations
        (
			#include "probe1.H"
        );
	}*/	
}

//urbanMicroclimateFoam controls

initialSolidTimestepFactor	0.0016667;

minDeltaT       1E-6;

maxDeltaT       30;

// ************************************************************************* //
