/*--------------------------------*- C++ -*----------------------------------*\
| =========                 |                                                 |
| \\      /  F ield         | OpenFOAM: The Open Source CFD Toolbox           |
|  \\    /   O peration     | Version:  2.4.0                                 |
|   \\  /    A nd           | Web:      www.OpenFOAM.org                      |
|    \\/     M anipulation  |                                                 |
\*---------------------------------------------------------------------------*/
FoamFile
{
    version     2.0;
    format      ascii;
    class       dictionary;
    location    "system";
    object      fvSchemes;
}
// * * * * * * * * * * * * * * * * * * * * * * * * * * * * * * * * * * * * * //

ddtSchemes
{
    default         steadyState;
}

gradSchemes
{
    //default         Gauss linear;
    default         cellLimited Gauss linear 1;
}

divSchemes
{
    default             none;
    div(phi,U)          bounded Gauss linearUpwind grad(U);
    div(phi,k)          bounded Gauss linearUpwind grad(k);
    div(phi,epsilon)    bounded Gauss linearUpwind grad(epsilon);
    div(phi,omega)    bounded Gauss linearUpwind grad(omega);
    div((nuEff*dev(T(grad(U)))))    Gauss linear;
}

laplacianSchemes
{
    default         Gauss linear corrected;
}

interpolationSchemes
{
    default         linear;
}

snGradSchemes
{
    default         corrected;
}

fluxRequired
{
    default         no;
    Phi;
    p;
}


// ************************************************************************* //
