/*--------------------------------*- C++ -*----------------------------------*| =========                 |                                                 |
| \\      /  F ield         | OpenFOAM: The Open Source CFD Toolbox           |
|  \\    /   O peration     | Version:  2.4.x                                 |
|   \\  /    A nd           | Web:      www.OpenFOAM.org                      |
|    \\/     M anipulation  |                                                 |
\*---------------------------------------------------------------------------*/
FoamFile
{
    version     2.0;
    format      ascii;
    class       scalarList;
    location    "constant";
    object      asource;
}
// * * * * * * * * * * * * * * * * * * * * * * * * * * * * * * * * * * * * * //


// pmin	(3.0 0.9 0.01);
// np	(21 22 23);
// dp	(0.012000720000000076 0.009550781249999973 0.00955078125);
10626
(
0.0
0.0
0.0
0.0
0.0
0.0
0.0
0.0
0.0
0.0
0.0
0.0
0.0
0.0
0.0
0.0
0.0
0.0
0.0
0.0
0.0
0.0
0.0
0.0
0.0
0.0
0.0
0.0
0.0
0.0
0.0
0.0
0.0
0.0
0.0
0.0
0.0
0.0
0.0
0.0
0.0
0.0
0.0
0.0
0.0
0.0
0.0
0.0
0.0
0.0
0.0
0.0
0.0
0.0
0.0
0.0
0.0
0.0
0.0
0.0
0.0
0.0
0.0
0.0
0.0
0.0
0.0
0.0
0.0
0.0
0.0
0.0
0.0
0.0
0.0
0.0
0.0
0.0
0.0
0.0
0.0
0.0
0.0
0.0
0.0
0.0
0.0
0.0
0.0
0.0
0.0
0.0
0.0
0.0
0.0
0.0
0.0
0.0
0.0
0.0
0.0
0.0
0.0
0.0
0.0
0.0
0.0
0.0
0.0
0.0
0.0
0.0
0.0
0.0
0.0
0.0
0.0
0.0
0.0
0.0
0.0
0.0
0.0
0.0
0.0
0.0
0.0
0.0
0.0
0.0
0.0
0.0
0.0
0.0
0.0
0.0
79.55136186014731
0.0
0.0
0.0
0.0
0.0
0.0
0.0
0.0
0.0
0.0
0.0
0.0
0.0
0.0
0.0
0.0
0.0
79.55136186014731
79.55136186014731
79.55136186014731
79.55136186014731
0.0
0.0
0.0
0.0
0.0
0.0
0.0
0.0
0.0
0.0
0.0
0.0
0.0
0.0
0.0
0.0
0.0
79.55136186014731
79.55136186014731
79.55136186014731
79.55136186014731
0.0
79.55136186014731
79.55136186014731
0.0
0.0
0.0
0.0
0.0
0.0
0.0
0.0
0.0
0.0
0.0
0.0
0.0
79.55136186014731
79.55136186014731
79.55136186014731
79.55136186014731
79.55136186014731
79.55136186014731
79.55136186014731
79.55136186014731
79.55136186014731
0.0
0.0
0.0
0.0
0.0
0.0
0.0
0.0
0.0
0.0
0.0
79.55136186014731
79.55136186014731
79.55136186014731
79.55136186014731
79.55136186014731
79.55136186014731
79.55136186014731
0.0
79.55136186014731
79.55136186014731
79.55136186014731
79.55136186014731
0.0
0.0
0.0
0.0
0.0
0.0
0.0
0.0
0.0
79.55136186014731
79.55136186014731
79.55136186014731
79.55136186014731
79.55136186014731
79.55136186014731
79.55136186014731
79.55136186014731
79.55136186014731
79.55136186014731
79.55136186014731
79.55136186014731
0.0
0.0
0.0
0.0
0.0
0.0
0.0
0.0
0.0
0.0
0.0
79.55136186014731
79.55136186014731
79.55136186014731
79.55136186014731
79.55136186014731
0.0
79.55136186014731
79.55136186014731
0.0
0.0
0.0
0.0
0.0
0.0
0.0
0.0
0.0
0.0
0.0
0.0
0.0
79.55136186014731
79.55136186014731
79.55136186014731
79.55136186014731
0.0
0.0
0.0
0.0
0.0
0.0
0.0
0.0
0.0
0.0
0.0
0.0
0.0
0.0
0.0
0.0
0.0
79.55136186014731
79.55136186014731
79.55136186014731
79.55136186014731
79.55136186014731
0.0
0.0
0.0
0.0
0.0
0.0
0.0
0.0
0.0
0.0
0.0
0.0
0.0
0.0
79.55136186014731
0.0
0.0
0.0
79.55136186014731
79.55136186014731
79.55136186014731
0.0
0.0
0.0
0.0
0.0
0.0
0.0
0.0
0.0
0.0
0.0
0.0
0.0
0.0
0.0
0.0
0.0
0.0
0.0
0.0
0.0
0.0
0.0
0.0
0.0
0.0
0.0
0.0
0.0
0.0
0.0
0.0
0.0
0.0
0.0
0.0
79.55136186014731
79.55136186014731
0.0
0.0
0.0
0.0
0.0
0.0
0.0
0.0
0.0
0.0
0.0
0.0
0.0
0.0
0.0
0.0
0.0
0.0
0.0
79.55136186014731
79.55136186014731
0.0
0.0
0.0
0.0
0.0
0.0
0.0
0.0
0.0
0.0
0.0
0.0
0.0
0.0
0.0
0.0
0.0
0.0
0.0
0.0
0.0
0.0
0.0
0.0
0.0
0.0
0.0
0.0
0.0
0.0
0.0
0.0
0.0
0.0
0.0
0.0
0.0
0.0
0.0
0.0
0.0
0.0
0.0
0.0
0.0
0.0
0.0
0.0
0.0
0.0
0.0
0.0
0.0
0.0
0.0
0.0
0.0
0.0
0.0
0.0
0.0
0.0
0.0
0.0
0.0
0.0
0.0
0.0
0.0
0.0
0.0
0.0
0.0
0.0
0.0
0.0
0.0
0.0
0.0
0.0
0.0
0.0
0.0
0.0
0.0
0.0
0.0
0.0
0.0
0.0
0.0
0.0
0.0
0.0
0.0
0.0
0.0
0.0
0.0
0.0
0.0
0.0
0.0
0.0
0.0
0.0
0.0
0.0
0.0
0.0
0.0
0.0
0.0
0.0
0.0
0.0
0.0
0.0
0.0
0.0
0.0
0.0
0.0
0.0
0.0
0.0
0.0
0.0
0.0
0.0
0.0
0.0
0.0
0.0
0.0
0.0
0.0
0.0
0.0
0.0
0.0
0.0
0.0
0.0
0.0
0.0
0.0
0.0
0.0
0.0
0.0
0.0
0.0
0.0
0.0
0.0
0.0
0.0
0.0
0.0
0.0
0.0
0.0
0.0
0.0
0.0
0.0
0.0
0.0
0.0
0.0
0.0
0.0
0.0
0.0
0.0
0.0
0.0
0.0
0.0
0.0
0.0
0.0
0.0
0.0
0.0
0.0
0.0
0.0
0.0
0.0
0.0
79.55136186014731
0.0
0.0
0.0
0.0
0.0
0.0
0.0
0.0
0.0
0.0
0.0
0.0
0.0
0.0
0.0
0.0
79.55136186014731
79.55136186014731
79.55136186014731
79.55136186014731
0.0
0.0
0.0
0.0
0.0
0.0
0.0
0.0
0.0
0.0
0.0
0.0
0.0
0.0
0.0
0.0
79.55136186014731
79.55136186014731
79.55136186014731
79.55136186014731
79.55136186014731
79.55136186014731
79.55136186014731
79.55136186014731
79.55136186014731
0.0
0.0
0.0
0.0
0.0
0.0
0.0
0.0
0.0
0.0
0.0
79.55136186014731
79.55136186014731
79.55136186014731
79.55136186014731
79.55136186014731
79.55136186014731
0.0
79.55136186014731
79.55136186014731
79.55136186014731
0.0
0.0
0.0
0.0
0.0
0.0
0.0
0.0
0.0
0.0
0.0
79.55136186014731
79.55136186014731
79.55136186014731
79.55136186014731
79.55136186014731
79.55136186014731
79.55136186014731
79.55136186014731
79.55136186014731
79.55136186014731
0.0
0.0
0.0
0.0
0.0
0.0
0.0
0.0
0.0
0.0
0.0
79.55136186014731
79.55136186014731
79.55136186014731
79.55136186014731
79.55136186014731
79.55136186014731
79.55136186014731
79.55136186014731
79.55136186014731
79.55136186014731
0.0
0.0
0.0
0.0
0.0
0.0
0.0
0.0
0.0
0.0
0.0
79.55136186014731
79.55136186014731
79.55136186014731
79.55136186014731
79.55136186014731
0.0
79.55136186014731
79.55136186014731
79.55136186014731
79.55136186014731
0.0
0.0
0.0
0.0
0.0
0.0
0.0
0.0
0.0
0.0
0.0
79.55136186014731
79.55136186014731
79.55136186014731
79.55136186014731
79.55136186014731
79.55136186014731
79.55136186014731
79.55136186014731
79.55136186014731
79.55136186014731
0.0
0.0
0.0
0.0
0.0
0.0
0.0
0.0
0.0
0.0
0.0
79.55136186014731
79.55136186014731
79.55136186014731
79.55136186014731
79.55136186014731
79.55136186014731
0.0
0.0
0.0
0.0
0.0
0.0
0.0
0.0
0.0
0.0
0.0
0.0
0.0
0.0
0.0
79.55136186014731
79.55136186014731
79.55136186014731
79.55136186014731
79.55136186014731
79.55136186014731
79.55136186014731
0.0
0.0
0.0
0.0
0.0
0.0
0.0
0.0
0.0
0.0
0.0
0.0
0.0
0.0
79.55136186014731
79.55136186014731
79.55136186014731
79.55136186014731
79.55136186014731
79.55136186014731
79.55136186014731
79.55136186014731
0.0
0.0
0.0
0.0
0.0
0.0
0.0
0.0
0.0
0.0
0.0
0.0
0.0
0.0
0.0
79.55136186014731
79.55136186014731
0.0
79.55136186014731
79.55136186014731
0.0
0.0
0.0
0.0
0.0
0.0
0.0
0.0
0.0
0.0
0.0
0.0
0.0
0.0
0.0
79.55136186014731
79.55136186014731
0.0
0.0
0.0
0.0
0.0
0.0
0.0
0.0
0.0
0.0
0.0
0.0
0.0
0.0
0.0
0.0
0.0
0.0
0.0
79.55136186014731
79.55136186014731
0.0
0.0
0.0
0.0
0.0
0.0
0.0
0.0
0.0
0.0
0.0
0.0
0.0
0.0
0.0
0.0
0.0
0.0
0.0
0.0
0.0
0.0
0.0
0.0
0.0
0.0
0.0
0.0
0.0
0.0
0.0
0.0
0.0
0.0
0.0
0.0
0.0
0.0
0.0
0.0
0.0
0.0
0.0
0.0
0.0
0.0
0.0
0.0
0.0
0.0
0.0
0.0
0.0
0.0
0.0
0.0
0.0
0.0
0.0
0.0
0.0
0.0
0.0
0.0
0.0
0.0
0.0
0.0
0.0
0.0
0.0
0.0
0.0
0.0
0.0
0.0
0.0
0.0
0.0
0.0
0.0
0.0
0.0
0.0
0.0
0.0
0.0
0.0
0.0
0.0
0.0
0.0
0.0
0.0
0.0
0.0
0.0
0.0
0.0
0.0
0.0
0.0
0.0
0.0
0.0
0.0
0.0
0.0
0.0
0.0
0.0
0.0
0.0
0.0
0.0
0.0
0.0
0.0
0.0
0.0
0.0
0.0
0.0
0.0
0.0
0.0
0.0
0.0
0.0
0.0
0.0
0.0
0.0
0.0
0.0
0.0
0.0
0.0
0.0
0.0
0.0
0.0
0.0
0.0
0.0
0.0
0.0
0.0
0.0
0.0
0.0
0.0
0.0
0.0
0.0
0.0
0.0
0.0
0.0
0.0
0.0
0.0
0.0
0.0
0.0
0.0
0.0
0.0
0.0
79.55136186014731
79.55136186014731
79.55136186014731
0.0
0.0
0.0
0.0
0.0
0.0
0.0
0.0
0.0
0.0
0.0
0.0
0.0
0.0
0.0
79.55136186014731
79.55136186014731
79.55136186014731
79.55136186014731
79.55136186014731
79.55136186014731
79.55136186014731
0.0
0.0
0.0
0.0
0.0
0.0
0.0
0.0
0.0
0.0
0.0
0.0
0.0
0.0
79.55136186014731
79.55136186014731
0.0
79.55136186014731
79.55136186014731
79.55136186014731
79.55136186014731
79.55136186014731
0.0
0.0
0.0
0.0
0.0
0.0
0.0
0.0
0.0
0.0
0.0
0.0
0.0
79.55136186014731
79.55136186014731
79.55136186014731
79.55136186014731
79.55136186014731
79.55136186014731
79.55136186014731
79.55136186014731
79.55136186014731
0.0
0.0
0.0
0.0
0.0
0.0
0.0
0.0
0.0
0.0
0.0
79.55136186014731
79.55136186014731
79.55136186014731
79.55136186014731
79.55136186014731
79.55136186014731
79.55136186014731
79.55136186014731
79.55136186014731
79.55136186014731
0.0
0.0
0.0
0.0
0.0
0.0
0.0
0.0
0.0
0.0
0.0
79.55136186014731
79.55136186014731
79.55136186014731
79.55136186014731
79.55136186014731
79.55136186014731
79.55136186014731
79.55136186014731
79.55136186014731
79.55136186014731
0.0
0.0
0.0
0.0
0.0
0.0
0.0
0.0
0.0
0.0
0.0
79.55136186014731
79.55136186014731
79.55136186014731
79.55136186014731
79.55136186014731
79.55136186014731
79.55136186014731
79.55136186014731
79.55136186014731
79.55136186014731
0.0
0.0
0.0
0.0
0.0
0.0
0.0
0.0
0.0
0.0
79.55136186014731
79.55136186014731
79.55136186014731
79.55136186014731
79.55136186014731
79.55136186014731
79.55136186014731
79.55136186014731
79.55136186014731
79.55136186014731
79.55136186014731
0.0
0.0
0.0
0.0
0.0
0.0
0.0
0.0
0.0
0.0
0.0
79.55136186014731
79.55136186014731
79.55136186014731
79.55136186014731
79.55136186014731
79.55136186014731
79.55136186014731
79.55136186014731
79.55136186014731
79.55136186014731
0.0
0.0
0.0
0.0
0.0
0.0
0.0
0.0
0.0
0.0
0.0
79.55136186014731
79.55136186014731
79.55136186014731
79.55136186014731
79.55136186014731
79.55136186014731
79.55136186014731
0.0
0.0
0.0
0.0
0.0
0.0
0.0
0.0
0.0
0.0
0.0
0.0
0.0
0.0
79.55136186014731
79.55136186014731
79.55136186014731
79.55136186014731
79.55136186014731
79.55136186014731
79.55136186014731
79.55136186014731
0.0
0.0
0.0
0.0
0.0
0.0
0.0
0.0
0.0
0.0
0.0
0.0
0.0
0.0
79.55136186014731
79.55136186014731
79.55136186014731
79.55136186014731
79.55136186014731
79.55136186014731
79.55136186014731
79.55136186014731
0.0
0.0
0.0
0.0
0.0
0.0
0.0
0.0
0.0
0.0
0.0
0.0
0.0
79.55136186014731
79.55136186014731
79.55136186014731
79.55136186014731
79.55136186014731
79.55136186014731
0.0
0.0
0.0
0.0
0.0
0.0
0.0
0.0
0.0
0.0
0.0
0.0
0.0
0.0
0.0
79.55136186014731
79.55136186014731
0.0
79.55136186014731
79.55136186014731
79.55136186014731
0.0
0.0
0.0
0.0
0.0
0.0
0.0
0.0
0.0
0.0
0.0
0.0
0.0
0.0
0.0
79.55136186014731
79.55136186014731
0.0
79.55136186014731
0.0
0.0
0.0
0.0
0.0
0.0
0.0
0.0
0.0
0.0
0.0
0.0
0.0
0.0
0.0
0.0
0.0
0.0
0.0
0.0
0.0
0.0
0.0
0.0
0.0
0.0
0.0
0.0
0.0
0.0
0.0
0.0
0.0
0.0
0.0
0.0
0.0
0.0
0.0
0.0
0.0
0.0
0.0
0.0
0.0
0.0
0.0
0.0
0.0
0.0
0.0
0.0
0.0
0.0
0.0
0.0
0.0
0.0
0.0
0.0
0.0
0.0
0.0
0.0
0.0
0.0
0.0
0.0
0.0
0.0
0.0
0.0
0.0
0.0
0.0
0.0
0.0
0.0
0.0
0.0
0.0
0.0
0.0
0.0
0.0
0.0
0.0
0.0
0.0
0.0
0.0
0.0
0.0
0.0
0.0
0.0
0.0
0.0
0.0
0.0
0.0
0.0
0.0
0.0
0.0
0.0
0.0
0.0
0.0
0.0
0.0
0.0
0.0
0.0
0.0
0.0
0.0
0.0
0.0
0.0
0.0
0.0
0.0
0.0
0.0
0.0
0.0
0.0
0.0
0.0
0.0
0.0
0.0
0.0
0.0
0.0
0.0
0.0
0.0
0.0
0.0
0.0
0.0
0.0
0.0
0.0
79.55136186014731
79.55136186014731
79.55136186014731
0.0
0.0
0.0
0.0
0.0
0.0
0.0
0.0
0.0
0.0
0.0
0.0
0.0
0.0
0.0
0.0
79.55136186014731
79.55136186014731
79.55136186014731
79.55136186014731
79.55136186014731
0.0
0.0
0.0
0.0
0.0
0.0
0.0
0.0
0.0
0.0
0.0
0.0
0.0
0.0
0.0
79.55136186014731
79.55136186014731
79.55136186014731
79.55136186014731
79.55136186014731
79.55136186014731
79.55136186014731
0.0
0.0
0.0
0.0
0.0
0.0
0.0
0.0
0.0
0.0
0.0
0.0
0.0
79.55136186014731
79.55136186014731
79.55136186014731
79.55136186014731
79.55136186014731
79.55136186014731
79.55136186014731
79.55136186014731
79.55136186014731
79.55136186014731
0.0
0.0
0.0
0.0
0.0
0.0
0.0
0.0
0.0
0.0
0.0
79.55136186014731
79.55136186014731
79.55136186014731
79.55136186014731
79.55136186014731
79.55136186014731
79.55136186014731
79.55136186014731
79.55136186014731
79.55136186014731
0.0
0.0
0.0
0.0
0.0
0.0
0.0
0.0
0.0
0.0
0.0
79.55136186014731
79.55136186014731
79.55136186014731
79.55136186014731
79.55136186014731
79.55136186014731
79.55136186014731
79.55136186014731
79.55136186014731
79.55136186014731
79.55136186014731
0.0
0.0
0.0
0.0
0.0
0.0
0.0
0.0
0.0
0.0
79.55136186014731
79.55136186014731
79.55136186014731
79.55136186014731
79.55136186014731
79.55136186014731
79.55136186014731
79.55136186014731
79.55136186014731
79.55136186014731
0.0
0.0
0.0
0.0
0.0
0.0
0.0
0.0
0.0
0.0
0.0
79.55136186014731
79.55136186014731
79.55136186014731
79.55136186014731
79.55136186014731
79.55136186014731
79.55136186014731
79.55136186014731
79.55136186014731
79.55136186014731
79.55136186014731
0.0
0.0
0.0
0.0
0.0
0.0
0.0
0.0
0.0
79.55136186014731
79.55136186014731
79.55136186014731
79.55136186014731
79.55136186014731
79.55136186014731
79.55136186014731
79.55136186014731
79.55136186014731
79.55136186014731
79.55136186014731
79.55136186014731
0.0
0.0
0.0
0.0
0.0
0.0
0.0
0.0
0.0
79.55136186014731
79.55136186014731
79.55136186014731
79.55136186014731
79.55136186014731
79.55136186014731
79.55136186014731
79.55136186014731
79.55136186014731
79.55136186014731
79.55136186014731
79.55136186014731
0.0
0.0
0.0
0.0
0.0
0.0
0.0
0.0
0.0
79.55136186014731
79.55136186014731
79.55136186014731
79.55136186014731
79.55136186014731
79.55136186014731
79.55136186014731
79.55136186014731
79.55136186014731
79.55136186014731
79.55136186014731
0.0
0.0
0.0
0.0
0.0
0.0
0.0
0.0
0.0
0.0
0.0
79.55136186014731
79.55136186014731
79.55136186014731
79.55136186014731
79.55136186014731
79.55136186014731
79.55136186014731
79.55136186014731
0.0
0.0
0.0
0.0
0.0
0.0
0.0
0.0
0.0
0.0
0.0
0.0
0.0
79.55136186014731
79.55136186014731
79.55136186014731
79.55136186014731
0.0
79.55136186014731
79.55136186014731
79.55136186014731
79.55136186014731
0.0
0.0
0.0
0.0
0.0
0.0
0.0
0.0
0.0
0.0
0.0
0.0
0.0
0.0
79.55136186014731
79.55136186014731
79.55136186014731
79.55136186014731
79.55136186014731
79.55136186014731
79.55136186014731
0.0
0.0
0.0
0.0
0.0
0.0
0.0
0.0
0.0
0.0
0.0
0.0
0.0
0.0
0.0
79.55136186014731
79.55136186014731
79.55136186014731
79.55136186014731
0.0
0.0
0.0
0.0
0.0
0.0
0.0
0.0
0.0
0.0
0.0
0.0
0.0
0.0
0.0
0.0
0.0
79.55136186014731
79.55136186014731
79.55136186014731
0.0
0.0
0.0
0.0
0.0
0.0
0.0
0.0
0.0
0.0
0.0
0.0
0.0
0.0
0.0
0.0
0.0
0.0
0.0
0.0
0.0
0.0
0.0
0.0
0.0
0.0
0.0
0.0
0.0
0.0
0.0
0.0
0.0
0.0
0.0
0.0
0.0
0.0
0.0
0.0
0.0
0.0
0.0
0.0
0.0
0.0
0.0
0.0
0.0
0.0
0.0
0.0
0.0
0.0
0.0
0.0
0.0
0.0
0.0
0.0
0.0
0.0
0.0
0.0
0.0
0.0
0.0
0.0
0.0
0.0
0.0
0.0
0.0
0.0
0.0
0.0
0.0
0.0
0.0
0.0
0.0
0.0
0.0
0.0
0.0
0.0
0.0
0.0
0.0
0.0
0.0
0.0
0.0
0.0
0.0
0.0
0.0
0.0
0.0
0.0
0.0
0.0
0.0
0.0
0.0
0.0
0.0
0.0
0.0
0.0
0.0
0.0
0.0
0.0
0.0
0.0
0.0
0.0
0.0
0.0
0.0
0.0
0.0
0.0
0.0
0.0
79.55136186014731
0.0
0.0
0.0
0.0
0.0
0.0
0.0
0.0
0.0
0.0
0.0
0.0
0.0
0.0
0.0
0.0
79.55136186014731
79.55136186014731
79.55136186014731
79.55136186014731
79.55136186014731
79.55136186014731
0.0
0.0
0.0
0.0
0.0
0.0
0.0
0.0
0.0
0.0
0.0
0.0
0.0
79.55136186014731
79.55136186014731
79.55136186014731
79.55136186014731
79.55136186014731
79.55136186014731
79.55136186014731
79.55136186014731
0.0
0.0
0.0
0.0
0.0
0.0
0.0
0.0
0.0
0.0
0.0
0.0
0.0
79.55136186014731
79.55136186014731
79.55136186014731
79.55136186014731
79.55136186014731
79.55136186014731
79.55136186014731
79.55136186014731
79.55136186014731
0.0
0.0
0.0
0.0
0.0
0.0
0.0
0.0
0.0
0.0
0.0
0.0
79.55136186014731
79.55136186014731
79.55136186014731
79.55136186014731
79.55136186014731
79.55136186014731
79.55136186014731
79.55136186014731
79.55136186014731
79.55136186014731
79.55136186014731
0.0
0.0
0.0
0.0
0.0
0.0
0.0
0.0
0.0
0.0
79.55136186014731
79.55136186014731
79.55136186014731
79.55136186014731
79.55136186014731
79.55136186014731
79.55136186014731
79.55136186014731
79.55136186014731
79.55136186014731
79.55136186014731
0.0
0.0
0.0
0.0
0.0
0.0
0.0
0.0
0.0
0.0
79.55136186014731
79.55136186014731
79.55136186014731
79.55136186014731
79.55136186014731
79.55136186014731
79.55136186014731
79.55136186014731
79.55136186014731
79.55136186014731
79.55136186014731
0.0
0.0
0.0
0.0
0.0
0.0
0.0
0.0
0.0
79.55136186014731
79.55136186014731
79.55136186014731
79.55136186014731
79.55136186014731
79.55136186014731
79.55136186014731
79.55136186014731
79.55136186014731
79.55136186014731
79.55136186014731
0.0
0.0
0.0
0.0
0.0
0.0
0.0
0.0
0.0
0.0
79.55136186014731
79.55136186014731
79.55136186014731
79.55136186014731
79.55136186014731
79.55136186014731
79.55136186014731
79.55136186014731
79.55136186014731
79.55136186014731
79.55136186014731
79.55136186014731
0.0
0.0
0.0
0.0
0.0
0.0
0.0
0.0
79.55136186014731
79.55136186014731
79.55136186014731
79.55136186014731
79.55136186014731
79.55136186014731
79.55136186014731
79.55136186014731
79.55136186014731
79.55136186014731
79.55136186014731
79.55136186014731
79.55136186014731
0.0
0.0
0.0
0.0
0.0
0.0
0.0
0.0
0.0
79.55136186014731
79.55136186014731
79.55136186014731
79.55136186014731
79.55136186014731
79.55136186014731
79.55136186014731
79.55136186014731
79.55136186014731
79.55136186014731
79.55136186014731
79.55136186014731
0.0
0.0
0.0
0.0
0.0
0.0
0.0
0.0
0.0
79.55136186014731
79.55136186014731
79.55136186014731
79.55136186014731
79.55136186014731
79.55136186014731
79.55136186014731
79.55136186014731
79.55136186014731
79.55136186014731
79.55136186014731
0.0
0.0
0.0
0.0
0.0
0.0
0.0
0.0
0.0
0.0
0.0
79.55136186014731
79.55136186014731
79.55136186014731
79.55136186014731
79.55136186014731
79.55136186014731
79.55136186014731
79.55136186014731
0.0
0.0
0.0
0.0
0.0
0.0
0.0
0.0
0.0
0.0
0.0
0.0
0.0
79.55136186014731
79.55136186014731
79.55136186014731
79.55136186014731
79.55136186014731
79.55136186014731
79.55136186014731
79.55136186014731
79.55136186014731
79.55136186014731
0.0
0.0
0.0
0.0
0.0
0.0
0.0
0.0
0.0
0.0
0.0
0.0
79.55136186014731
79.55136186014731
79.55136186014731
79.55136186014731
79.55136186014731
79.55136186014731
79.55136186014731
79.55136186014731
79.55136186014731
0.0
0.0
0.0
0.0
0.0
0.0
0.0
0.0
0.0
0.0
0.0
0.0
0.0
79.55136186014731
79.55136186014731
79.55136186014731
79.55136186014731
79.55136186014731
79.55136186014731
79.55136186014731
0.0
0.0
0.0
0.0
0.0
0.0
0.0
0.0
0.0
0.0
0.0
0.0
0.0
0.0
0.0
79.55136186014731
79.55136186014731
79.55136186014731
79.55136186014731
79.55136186014731
0.0
0.0
0.0
0.0
0.0
0.0
0.0
0.0
0.0
0.0
0.0
0.0
0.0
0.0
0.0
0.0
0.0
0.0
0.0
0.0
0.0
0.0
0.0
0.0
0.0
0.0
0.0
0.0
0.0
0.0
0.0
0.0
0.0
0.0
0.0
0.0
0.0
0.0
0.0
0.0
0.0
0.0
0.0
0.0
0.0
0.0
0.0
0.0
0.0
0.0
0.0
0.0
0.0
0.0
0.0
0.0
0.0
0.0
0.0
0.0
0.0
0.0
0.0
0.0
0.0
0.0
0.0
0.0
0.0
0.0
0.0
0.0
0.0
0.0
0.0
0.0
0.0
0.0
0.0
0.0
0.0
0.0
0.0
0.0
0.0
0.0
0.0
0.0
0.0
0.0
0.0
0.0
0.0
0.0
0.0
0.0
0.0
0.0
0.0
0.0
0.0
0.0
0.0
0.0
0.0
0.0
0.0
0.0
0.0
0.0
0.0
0.0
0.0
0.0
0.0
0.0
0.0
0.0
0.0
0.0
0.0
79.55136186014731
0.0
79.55136186014731
79.55136186014731
79.55136186014731
0.0
0.0
0.0
0.0
0.0
0.0
0.0
0.0
0.0
0.0
0.0
0.0
0.0
0.0
79.55136186014731
79.55136186014731
79.55136186014731
79.55136186014731
79.55136186014731
79.55136186014731
79.55136186014731
79.55136186014731
0.0
0.0
0.0
0.0
0.0
0.0
0.0
0.0
0.0
0.0
0.0
0.0
79.55136186014731
79.55136186014731
79.55136186014731
79.55136186014731
79.55136186014731
79.55136186014731
79.55136186014731
79.55136186014731
79.55136186014731
0.0
0.0
0.0
0.0
0.0
0.0
0.0
0.0
0.0
0.0
0.0
0.0
79.55136186014731
79.55136186014731
79.55136186014731
79.55136186014731
79.55136186014731
79.55136186014731
79.55136186014731
79.55136186014731
79.55136186014731
79.55136186014731
0.0
0.0
0.0
0.0
0.0
0.0
0.0
0.0
0.0
0.0
0.0
0.0
79.55136186014731
79.55136186014731
79.55136186014731
79.55136186014731
79.55136186014731
79.55136186014731
79.55136186014731
79.55136186014731
79.55136186014731
79.55136186014731
0.0
0.0
0.0
0.0
0.0
0.0
0.0
0.0
0.0
79.55136186014731
79.55136186014731
79.55136186014731
79.55136186014731
79.55136186014731
79.55136186014731
79.55136186014731
79.55136186014731
79.55136186014731
79.55136186014731
79.55136186014731
79.55136186014731
79.55136186014731
0.0
0.0
0.0
0.0
0.0
0.0
0.0
0.0
79.55136186014731
79.55136186014731
79.55136186014731
79.55136186014731
79.55136186014731
79.55136186014731
79.55136186014731
79.55136186014731
79.55136186014731
79.55136186014731
79.55136186014731
79.55136186014731
79.55136186014731
0.0
0.0
0.0
0.0
0.0
0.0
0.0
0.0
79.55136186014731
79.55136186014731
79.55136186014731
79.55136186014731
79.55136186014731
79.55136186014731
79.55136186014731
79.55136186014731
79.55136186014731
79.55136186014731
79.55136186014731
79.55136186014731
0.0
0.0
0.0
0.0
0.0
0.0
0.0
0.0
79.55136186014731
79.55136186014731
79.55136186014731
79.55136186014731
79.55136186014731
79.55136186014731
79.55136186014731
79.55136186014731
79.55136186014731
79.55136186014731
79.55136186014731
79.55136186014731
79.55136186014731
0.0
0.0
0.0
0.0
0.0
0.0
0.0
0.0
79.55136186014731
79.55136186014731
79.55136186014731
79.55136186014731
79.55136186014731
79.55136186014731
79.55136186014731
79.55136186014731
79.55136186014731
79.55136186014731
79.55136186014731
79.55136186014731
79.55136186014731
79.55136186014731
0.0
0.0
0.0
0.0
0.0
0.0
0.0
79.55136186014731
79.55136186014731
79.55136186014731
79.55136186014731
79.55136186014731
79.55136186014731
79.55136186014731
79.55136186014731
79.55136186014731
79.55136186014731
79.55136186014731
79.55136186014731
79.55136186014731
0.0
0.0
0.0
0.0
0.0
0.0
0.0
0.0
0.0
79.55136186014731
79.55136186014731
79.55136186014731
79.55136186014731
79.55136186014731
79.55136186014731
79.55136186014731
79.55136186014731
79.55136186014731
79.55136186014731
79.55136186014731
79.55136186014731
0.0
0.0
0.0
0.0
0.0
0.0
0.0
0.0
0.0
79.55136186014731
79.55136186014731
79.55136186014731
79.55136186014731
79.55136186014731
79.55136186014731
79.55136186014731
79.55136186014731
79.55136186014731
79.55136186014731
79.55136186014731
79.55136186014731
0.0
0.0
0.0
0.0
0.0
0.0
0.0
0.0
0.0
0.0
0.0
79.55136186014731
79.55136186014731
79.55136186014731
79.55136186014731
79.55136186014731
79.55136186014731
79.55136186014731
79.55136186014731
79.55136186014731
79.55136186014731
0.0
0.0
0.0
0.0
0.0
0.0
0.0
0.0
0.0
0.0
79.55136186014731
79.55136186014731
79.55136186014731
79.55136186014731
79.55136186014731
79.55136186014731
79.55136186014731
79.55136186014731
79.55136186014731
79.55136186014731
79.55136186014731
0.0
0.0
0.0
0.0
0.0
0.0
0.0
0.0
0.0
0.0
79.55136186014731
79.55136186014731
79.55136186014731
79.55136186014731
79.55136186014731
79.55136186014731
79.55136186014731
79.55136186014731
79.55136186014731
0.0
0.0
0.0
0.0
0.0
0.0
0.0
0.0
0.0
0.0
0.0
0.0
0.0
79.55136186014731
79.55136186014731
0.0
79.55136186014731
0.0
79.55136186014731
79.55136186014731
79.55136186014731
0.0
0.0
0.0
0.0
0.0
0.0
0.0
0.0
0.0
0.0
0.0
0.0
0.0
0.0
0.0
0.0
79.55136186014731
0.0
0.0
0.0
0.0
0.0
0.0
0.0
0.0
0.0
0.0
0.0
0.0
0.0
0.0
0.0
0.0
0.0
0.0
0.0
0.0
0.0
0.0
0.0
0.0
0.0
0.0
0.0
0.0
0.0
0.0
0.0
0.0
0.0
0.0
0.0
0.0
0.0
0.0
0.0
0.0
0.0
0.0
0.0
0.0
0.0
0.0
0.0
0.0
0.0
0.0
0.0
0.0
0.0
0.0
0.0
0.0
0.0
0.0
0.0
0.0
0.0
0.0
0.0
0.0
0.0
0.0
0.0
0.0
0.0
0.0
0.0
0.0
0.0
0.0
0.0
0.0
0.0
0.0
0.0
0.0
79.55136186014731
79.55136186014731
0.0
79.55136186014731
79.55136186014731
0.0
0.0
0.0
0.0
0.0
0.0
0.0
0.0
0.0
0.0
0.0
0.0
0.0
0.0
0.0
0.0
79.55136186014731
79.55136186014731
79.55136186014731
79.55136186014731
79.55136186014731
79.55136186014731
79.55136186014731
0.0
0.0
0.0
0.0
0.0
0.0
0.0
0.0
0.0
0.0
0.0
0.0
0.0
0.0
79.55136186014731
79.55136186014731
79.55136186014731
79.55136186014731
79.55136186014731
79.55136186014731
79.55136186014731
79.55136186014731
79.55136186014731
0.0
0.0
0.0
0.0
0.0
0.0
0.0
0.0
0.0
0.0
79.55136186014731
79.55136186014731
79.55136186014731
79.55136186014731
79.55136186014731
79.55136186014731
79.55136186014731
79.55136186014731
79.55136186014731
79.55136186014731
79.55136186014731
0.0
0.0
0.0
0.0
0.0
0.0
0.0
0.0
0.0
0.0
0.0
79.55136186014731
79.55136186014731
79.55136186014731
79.55136186014731
79.55136186014731
79.55136186014731
79.55136186014731
79.55136186014731
79.55136186014731
79.55136186014731
79.55136186014731
0.0
0.0
0.0
0.0
0.0
0.0
0.0
0.0
0.0
0.0
79.55136186014731
79.55136186014731
79.55136186014731
79.55136186014731
79.55136186014731
79.55136186014731
79.55136186014731
79.55136186014731
79.55136186014731
79.55136186014731
79.55136186014731
79.55136186014731
0.0
0.0
0.0
0.0
0.0
0.0
0.0
79.55136186014731
79.55136186014731
79.55136186014731
79.55136186014731
79.55136186014731
79.55136186014731
79.55136186014731
79.55136186014731
79.55136186014731
79.55136186014731
79.55136186014731
79.55136186014731
79.55136186014731
79.55136186014731
0.0
0.0
0.0
0.0
0.0
0.0
0.0
79.55136186014731
79.55136186014731
79.55136186014731
79.55136186014731
79.55136186014731
79.55136186014731
79.55136186014731
79.55136186014731
79.55136186014731
79.55136186014731
79.55136186014731
79.55136186014731
79.55136186014731
79.55136186014731
0.0
0.0
0.0
0.0
0.0
0.0
0.0
79.55136186014731
79.55136186014731
79.55136186014731
79.55136186014731
79.55136186014731
79.55136186014731
79.55136186014731
79.55136186014731
79.55136186014731
79.55136186014731
79.55136186014731
79.55136186014731
79.55136186014731
0.0
0.0
0.0
0.0
0.0
0.0
0.0
79.55136186014731
79.55136186014731
79.55136186014731
79.55136186014731
79.55136186014731
79.55136186014731
79.55136186014731
79.55136186014731
79.55136186014731
79.55136186014731
79.55136186014731
79.55136186014731
79.55136186014731
79.55136186014731
0.0
0.0
0.0
0.0
0.0
0.0
0.0
79.55136186014731
79.55136186014731
79.55136186014731
79.55136186014731
79.55136186014731
79.55136186014731
79.55136186014731
79.55136186014731
79.55136186014731
79.55136186014731
79.55136186014731
79.55136186014731
79.55136186014731
79.55136186014731
79.55136186014731
0.0
0.0
0.0
0.0
0.0
0.0
79.55136186014731
79.55136186014731
79.55136186014731
79.55136186014731
79.55136186014731
79.55136186014731
79.55136186014731
79.55136186014731
79.55136186014731
79.55136186014731
79.55136186014731
79.55136186014731
79.55136186014731
79.55136186014731
79.55136186014731
0.0
0.0
0.0
0.0
0.0
0.0
79.55136186014731
79.55136186014731
79.55136186014731
79.55136186014731
79.55136186014731
79.55136186014731
79.55136186014731
79.55136186014731
79.55136186014731
79.55136186014731
79.55136186014731
79.55136186014731
79.55136186014731
79.55136186014731
79.55136186014731
0.0
0.0
0.0
0.0
0.0
0.0
0.0
0.0
79.55136186014731
79.55136186014731
79.55136186014731
79.55136186014731
79.55136186014731
79.55136186014731
79.55136186014731
79.55136186014731
79.55136186014731
79.55136186014731
79.55136186014731
79.55136186014731
79.55136186014731
0.0
0.0
0.0
0.0
0.0
0.0
0.0
0.0
79.55136186014731
79.55136186014731
79.55136186014731
79.55136186014731
79.55136186014731
79.55136186014731
79.55136186014731
79.55136186014731
79.55136186014731
79.55136186014731
79.55136186014731
79.55136186014731
79.55136186014731
0.0
0.0
0.0
0.0
0.0
0.0
0.0
0.0
0.0
79.55136186014731
79.55136186014731
79.55136186014731
79.55136186014731
79.55136186014731
79.55136186014731
79.55136186014731
79.55136186014731
79.55136186014731
79.55136186014731
79.55136186014731
0.0
0.0
0.0
0.0
0.0
0.0
0.0
0.0
0.0
0.0
79.55136186014731
79.55136186014731
79.55136186014731
79.55136186014731
79.55136186014731
79.55136186014731
79.55136186014731
79.55136186014731
79.55136186014731
0.0
0.0
0.0
0.0
0.0
0.0
0.0
0.0
0.0
0.0
0.0
0.0
79.55136186014731
79.55136186014731
79.55136186014731
79.55136186014731
79.55136186014731
0.0
79.55136186014731
79.55136186014731
79.55136186014731
0.0
0.0
0.0
0.0
0.0
0.0
0.0
0.0
0.0
0.0
0.0
0.0
0.0
0.0
79.55136186014731
0.0
79.55136186014731
0.0
0.0
0.0
0.0
0.0
0.0
0.0
0.0
0.0
0.0
0.0
0.0
0.0
0.0
0.0
0.0
0.0
0.0
0.0
0.0
0.0
0.0
0.0
0.0
0.0
0.0
0.0
0.0
0.0
0.0
0.0
0.0
0.0
0.0
0.0
0.0
0.0
0.0
0.0
0.0
0.0
0.0
0.0
0.0
0.0
0.0
0.0
0.0
0.0
0.0
0.0
0.0
0.0
0.0
0.0
0.0
0.0
0.0
0.0
0.0
0.0
0.0
0.0
0.0
0.0
0.0
0.0
0.0
0.0
0.0
0.0
0.0
0.0
0.0
0.0
0.0
0.0
0.0
0.0
0.0
79.55136186014731
79.55136186014731
79.55136186014731
79.55136186014731
79.55136186014731
79.55136186014731
0.0
0.0
0.0
0.0
0.0
0.0
0.0
0.0
0.0
0.0
0.0
0.0
0.0
0.0
0.0
79.55136186014731
79.55136186014731
79.55136186014731
79.55136186014731
79.55136186014731
79.55136186014731
79.55136186014731
79.55136186014731
0.0
0.0
0.0
0.0
0.0
0.0
0.0
0.0
0.0
0.0
0.0
0.0
79.55136186014731
79.55136186014731
79.55136186014731
79.55136186014731
79.55136186014731
79.55136186014731
79.55136186014731
79.55136186014731
79.55136186014731
79.55136186014731
0.0
0.0
0.0
0.0
0.0
0.0
0.0
0.0
0.0
0.0
79.55136186014731
79.55136186014731
79.55136186014731
79.55136186014731
79.55136186014731
79.55136186014731
79.55136186014731
79.55136186014731
79.55136186014731
79.55136186014731
79.55136186014731
79.55136186014731
0.0
0.0
0.0
0.0
0.0
0.0
0.0
0.0
0.0
79.55136186014731
0.0
79.55136186014731
79.55136186014731
79.55136186014731
79.55136186014731
79.55136186014731
79.55136186014731
79.55136186014731
79.55136186014731
79.55136186014731
79.55136186014731
0.0
0.0
0.0
0.0
0.0
0.0
0.0
0.0
0.0
0.0
79.55136186014731
79.55136186014731
79.55136186014731
79.55136186014731
79.55136186014731
79.55136186014731
79.55136186014731
79.55136186014731
79.55136186014731
79.55136186014731
79.55136186014731
79.55136186014731
0.0
0.0
0.0
0.0
0.0
0.0
0.0
79.55136186014731
79.55136186014731
79.55136186014731
79.55136186014731
79.55136186014731
79.55136186014731
79.55136186014731
79.55136186014731
79.55136186014731
79.55136186014731
79.55136186014731
79.55136186014731
79.55136186014731
79.55136186014731
79.55136186014731
0.0
0.0
0.0
0.0
0.0
0.0
79.55136186014731
79.55136186014731
79.55136186014731
79.55136186014731
79.55136186014731
79.55136186014731
79.55136186014731
79.55136186014731
79.55136186014731
79.55136186014731
79.55136186014731
79.55136186014731
79.55136186014731
79.55136186014731
79.55136186014731
0.0
0.0
0.0
0.0
0.0
0.0
79.55136186014731
79.55136186014731
79.55136186014731
79.55136186014731
79.55136186014731
79.55136186014731
79.55136186014731
79.55136186014731
79.55136186014731
79.55136186014731
79.55136186014731
79.55136186014731
79.55136186014731
79.55136186014731
0.0
0.0
0.0
0.0
0.0
0.0
0.0
79.55136186014731
79.55136186014731
79.55136186014731
79.55136186014731
79.55136186014731
79.55136186014731
79.55136186014731
79.55136186014731
79.55136186014731
79.55136186014731
79.55136186014731
79.55136186014731
79.55136186014731
79.55136186014731
0.0
0.0
0.0
0.0
0.0
0.0
0.0
79.55136186014731
79.55136186014731
79.55136186014731
79.55136186014731
79.55136186014731
79.55136186014731
79.55136186014731
79.55136186014731
79.55136186014731
79.55136186014731
79.55136186014731
79.55136186014731
79.55136186014731
79.55136186014731
0.0
0.0
0.0
0.0
0.0
0.0
79.55136186014731