/*--------------------------------*- C++ -*----------------------------------*\
| =========                 |                                                 |
| \\      /  F ield         | OpenFOAM: The Open Source CFD Toolbox           |
|  \\    /   O peration     | Version:  2.3.1                                 |
|   \\  /    A nd           | Web:      www.OpenFOAM.org                      |
|    \\/     M anipulation  |                                                 |
\*---------------------------------------------------------------------------*/
FoamFile
{
    version     2.0;
    format      ascii;
    class       dictionary;
    location    "constant";
    object      vegetationProperties;
}
// * * * * * * * * * * * * * * * * * * * * * * * * * * * * * * * * * * * * * //

// drag coefficient
dragCoeff           0.5;

// leaf drag coefficient
cd                  cd     [0 0 0 0 0 0 0] $dragCoeff;

//cd                  cd     [0 0 0 0 0 0 0] 0.2;
//cd                  cd     [0 0 0 0 0 0 0] 0.3;
//cd                  cd     [0 0 0 0 0 0 0] 0.4;
//cd                  cd     [0 0 0 0 0 0 0] 0.5;
//cd                  cd     [0 0 0 0 0 0 0] 1.0;

// LAD mesh
pmin                (3.0 0.9 0.01);
np                  (21 22 23);
dp                  (0.012000720000000076 0.009550781249999973 0.00955078125);

// ************************************************************************* //
