/*--------------------------------*- C++ -*----------------------------------*\
| =========                 |                                                 |
| \\      /  F ield         | OpenFOAM: The Open Source CFD Toolbox           |
|  \\    /   O peration     | Version:  2.2.2                                 |
|   \\  /    A nd           | Web:      www.OpenFOAM.org                      |
|    \\/     M anipulation  |                                                 |
\*---------------------------------------------------------------------------*/
FoamFile
{
    version     2.0;
    format      ascii;
    class       scalarList;
    location    "constant";
    object      Eb;
}
// * * * * * * * * * * * * * * * * * * * * * * * * * * * * * * * * * * * * * //


144
(
0
0
0
0
0
0
0
0
0
0
0
0
0
0
0
0
0
0
0
0
0
0
0
0
0
0
0
0
8.14061704628666e-05
4.23666783584393
39.6313696684973
103.844189524126
177.398261330296
249.308315944603
315.334888167380
374.386585739010
426.648046551106
472.755757299163
513.453866908996
549.457960003449
581.407592656984
609.856003357310
635.274602195092
658.062531182517
678.557174248141
697.043972626027
713.764994693761
728.926178715868
742.703353938542
755.247205971436
766.687358200030
777.135725148442
786.689271221441
795.432285581836
803.438263599227
810.771468070227
817.488229210075
823.638030902934
829.264421446039
834.405779619231
839.095960996180
843.364844685725
847.238796906746
850.741064762079
853.892111130682
856.709899619839
859.210136913615
861.406478543821
863.310703034694
864.932858484732
866.281384910248
867.363215054805
868.183855842073
868.747452196716
869.056834562034
869.113551090506
868.917885161913
868.468858583093
867.764220533819
866.800422035774
865.572575427053
864.074398013832
862.298138733558
860.234486289240
857.872456789000
855.199258433796
852.200130220756
848.858150947340
845.154013984949
841.065762305033
836.568477043080
831.633911421604
826.230060053669
820.320651426518
813.864548610043
806.815039807375
799.118996088052
790.715868296550
781.536488435566
771.501632450718
760.520290900258
748.487581052627
735.282218114877
720.763444333283
704.767292919880
687.102040689215
667.542683270183
645.824260144518
621.633886776515
594.601468444477
564.289385029016
530.182187628688
491.679065643917
448.095716859389
398.691015145320
342.753911435095
279.832358242863
210.292730393387
136.626677469521
66.2402043971478
15.3402501019625
0.172219739702139
0
0
0
0
0
0
0
0
0
0
0
0
0
0
0
0
0
0
0
0
0
0
)


// ************************************************************************* //
