/*--------------------------------*- C++ -*----------------------------------*\
| =========                 |                                                 |
| \\      /  F ield         | OpenFOAM: The Open Source CFD Toolbox           |
|  \\    /   O peration     | Version:  2.2.2                                 |
|   \\  /    A nd           | Web:      www.OpenFOAM.org                      |
|    \\/     M anipulation  |                                                 |
\*---------------------------------------------------------------------------*/
FoamFile
{
    version     2.0;
    format      ascii;
    class       dictionary;
    location    "constant";
    object      radiationProperties;
}
// * * * * * * * * * * * * * * * * * * * * * * * * * * * * * * * * * * * * * //

radiationModel  none;

viewFactorSkyCoeffs
{
    smoothing true; //Smooth view factor matrix (use when in a close surface
                //to force Sum(Fij = 1)
    constantEmissivity true; //constant emissivity on surfaces.
}

// Number of flow iterations per radiation iteration
solverFreq 5;

absorptionEmissionModel constantAbsorptionEmission;

constantAbsorptionEmissionCoeffs
{
	absorptivity absorptivity [ 0 -1 0 0 0 0 0 ] 0;
	emissivity emissivity [ 0 -1 0 0 0 0 0 ] 0;
	E E [ 1 -1 -3 0 0 0 0 ] 0;
}

scatterModel constantScatter;

constantScatterCoeffs
{ 
sigma sigma [ 0 -1 0 0 0 0 0 ] 0;
C C [ 0 0 0 0 0 0 0 ] 0;
}

// ************************************************************************* //
