/*--------------------------------*- C++ -*----------------------------------*\
| =========                 |                                                 |
| \\      /  F ield         | OpenFOAM: The Open Source CFD Toolbox           |
|  \\    /   O peration     | Version:  2.4.0                                 |
|   \\  /    A nd           | Web:      www.OpenFOAM.org                      |
|    \\/     M anipulation  |                                                 |
\*---------------------------------------------------------------------------*/
FoamFile
{
    version     2.0;
    format      ascii;
    class       dictionary;
    object      blockMeshDict;
}
// * * * * * * * * * * * * * * * * * * * * * * * * * * * * * * * * * * * * * //

convertToMeters 1;

meshprop
{
    xMin    0;
    xMax    10;
    yMin    0;
    yMax    1.9;
    zMin    0;
    zMax    1.6;
    //xCells  417;//242;
    //yCells  87;
    //zCells  43;
    xCells  242;
    yCells  57;
    zCells  30;
}

vertices
(
    ($:meshprop.xMin $:meshprop.yMin $:meshprop.zMin)
    ($:meshprop.xMax $:meshprop.yMin $:meshprop.zMin)
    ($:meshprop.xMax $:meshprop.yMax $:meshprop.zMin)
    ($:meshprop.xMin $:meshprop.yMax $:meshprop.zMin)
    
    ($:meshprop.xMin $:meshprop.yMin $:meshprop.zMax)
    ($:meshprop.xMax $:meshprop.yMin $:meshprop.zMax)
    ($:meshprop.xMax $:meshprop.yMax $:meshprop.zMax)
    ($:meshprop.xMin $:meshprop.yMax $:meshprop.zMax)
);

blocks
(
    hex (0 1 2 3 4 5 6 7)
    (
        $:meshprop.xCells
        $:meshprop.yCells
        $:meshprop.zCells
    )
    simpleGrading
    (
        //(
        //    (3 55 0.06267216327)   // l% x-dir, % cells, expansion
        //    (3 300 1)           // l% x-dir, % cells, expansion
        //    (4 62 19.61314519)   // l% x-dir, % cells, expansion
        //)
        //(
        //    (0.9 34 0.1840259102)  // l% y-dir, % cells, expansion
        //    (0.2 20 1)          // l% y-dir, % cells, expansion
        //    (0.8 33 4.764941469) // l% y-dir, % cells, expansion
        //)
        //(
        //    (0.21 15 0.951695153)    // z% x-dir, % cells, expansion =
        //    (1.39 28 13.10999419)    // z% x-dir, % cells, expansion =
        //)
        (
            (3 43 0.11598222)   // l% x-dir, % cells, expansion
            (3 150 1)           // l% x-dir, % cells, expansion
            (4 49 10.4012697)   // l% x-dir, % cells, expansion
        )
        (
            (0.9 24 0.3073568)  // l% y-dir, % cells, expansion
            (0.2 10 1)          // l% y-dir, % cells, expansion
            (0.8 23 2.92526072) // l% y-dir, % cells, expansion
        )
        (
            (0.1572376 0.375 1)    // z% x-dir, % cells, expansion =
            (0.8427624 0.625 8)    // z% x-dir, % cells, expansion =
        )
    )
);

edges
(
);

boundary
(
    inlet
    {
        type patch;
        faces
        (
            (0 3 7 4)
        );
    }
    outlet
    {
        type patch;
        faces
        (
            (1 5 6 2)
        );
    }
    ground
    {
        type wall;
        faces
        (
            (0 1 2 3)
        );
    }
    frontAndBack
    {
        type wall;
        faces
        (
            (0 4 5 1)
            (3 2 6 7)
            (4 7 6 5)
        );
    }
);

mergePatchPairs
(
);

// ************************************************************************* //
