/*--------------------------------*- C++ -*----------------------------------*\
| =========                 |                                                 |
| \\      /  F ield         | OpenFOAM: The Open Source CFD Toolbox           |
|  \\    /   O peration     | Version:  2.3.1                                 |
|   \\  /    A nd           | Web:      www.OpenFOAM.org                      |
|    \\/     M anipulation  |                                                 |
\*---------------------------------------------------------------------------*/
FoamFile
{
    version     2.0;
    format      ascii;
    class       dictionary;
    object      blockMeshDict;
}
// * * * * * * * * * * * * * * * * * * * * * * * * * * * * * * * * * * * * * //

convertToMeters 1; // hb=0.12

// fluid block nodes
x1 -9.5; x2 -.5; x3 .5; x4 25.5;
y1 -0.5; y2 0.5;
z1 0; z2 0.5; z3 2.5; z4 12.5;

// fluid block res
// nx1 100; nx2 100; nx3 100;
// ny1 1;
// nz1 10; nz2 50; nz3 10;

// fluid block exp. rat.
// ex1 1; ex2 1; ex3 1;
// ey1 1;
// ez1 1; ez2 1; ez3 1;

// fluid block res
nx1 81; nx2 82; nx3 99;
ny1 1;
nz1 35; nz2 82; nz3 36;

// xc2c1 1.05 1.01 1.05
// zc2c1 1.05 1.01 1.15
// dxdy center = 0.01

// fluid block exp. rat.
ex1 0.020176975858866002; ex2 -1.488863734; ex3 119.2755173;
ey1 1;
ez1 -2.182874588; ez2 -1.488863734; ez3 133.1755234;

vertices
(
    ($x1 $y1 $z1)
    ($x2 $y1 $z1)
    ($x3 $y1 $z1)
    ($x4 $y1 $z1)
    ($x1 $y1 $z2)
    ($x2 $y1 $z2)
    ($x3 $y1 $z2)
    ($x4 $y1 $z2)
    ($x1 $y1 $z3)
    ($x2 $y1 $z3)
    ($x3 $y1 $z3)
    ($x4 $y1 $z3)
    ($x1 $y1 $z4)
    ($x2 $y1 $z4)
    ($x3 $y1 $z4)
    ($x4 $y1 $z4)

    ($x1 $y2 $z1)
    ($x2 $y2 $z1)
    ($x3 $y2 $z1)
    ($x4 $y2 $z1)
    ($x1 $y2 $z2)
    ($x2 $y2 $z2)
    ($x3 $y2 $z2)
    ($x4 $y2 $z2)
    ($x1 $y2 $z3)
    ($x2 $y2 $z3)
    ($x3 $y2 $z3)
    ($x4 $y2 $z3)
    ($x1 $y2 $z4)
    ($x2 $y2 $z4)
    ($x3 $y2 $z4)
    ($x4 $y2 $z4)

    ($x2 $y1 $z2)
    ($x3 $y1 $z2)
    ($x3 $y2 $z2)
    ($x2 $y2 $z2)

);

blocks
(
    hex (0 1 17 16 4 5 21 20)
    fluid1 ($nx1 $ny1 $nz1) simpleGrading ($ex1 $ey1 $ez1)

    hex (1 2 18 17 5 6 22 21)
    fluid2 ($nx2 $ny1 $nz1) simpleGrading ($ex2 $ey1 $ez1)

    hex (2 3 19 18 6 7 23 22)
    fluid3 ($nx3 $ny1 $nz1) simpleGrading ($ex3 $ey1 $ez1)

    hex (4 5 21 20 8 9 25 24)
    fluid4 ($nx1 $ny1 $nz2) simpleGrading ($ex1 $ey1 $ez2)

    hex (5 6 22 21 9 10 26 25)
    fluid5 ($nx2 $ny1 $nz2) simpleGrading ($ex2 $ey1 $ez2)

    hex (6 7 23 22 10 11 27 26)
    fluid6 ($nx3 $ny1 $nz2) simpleGrading ($ex3 $ey1 $ez2)

    hex (8 9 25 24 12 13 29 28)
    fluid7 ($nx1 $ny1 $nz3) simpleGrading ($ex1 $ey1 $ez3)

    hex (9 10 26 25 13 14 30 29)
    fluid8 ($nx2 $ny1 $nz3) simpleGrading ($ex2 $ey1 $ez3)

    hex (10 11 27 26 14 15 31 30)
    fluid9 ($nx3 $ny1 $nz3) simpleGrading ($ex3 $ey1 $ez3)

);

edges
(
);

boundary
(
    inlet
    {
        type patch;
        faces
        (
            (0 16 20 4)
            (4 20 24 8)
            (8 24 28 12)
        );
    }
    outlet
    {
        type patch;
        faces
        (
            (3 19 23 7)
            (7 23 27 11)
            (11 27 31 15)
        );
    }
    sky
    {
        type wall;
        faces
        (
            (12 13 29 28)
            (13 14 30 29)
            (14 15 31 30)
        );
    }
    ground
    {
        type wall;
        faces
        (
            (0 1 17 16)
            (1 2 18 17)
            (2 3 19 18)
        );
    }
    frontAndBack
    {
        type empty;
        faces
        (
            (0 1 5 4)
            (1 2 6 5)
            (2 3 7 6)
            (4 5 9 8)
            (5 6 10 9)
            (6 7 11 10)
            (8 9 13 12)
            (9 10 14 13)
            (10 11 15 14)
            (16 17 21 20)
            (17 18 22 21)
            (18 19 23 22)
            (20 21 25 24)
            (21 22 26 25)
            (22 23 27 26)
            (24 25 29 28)
            (25 26 30 29)
            (26 27 31 30)
        );
    }
);

mergePatchPairs
(
);

// ************************************************************************* //
