/*--------------------------------*- C++ -*----------------------------------*\
| =========                 |                                                 |
| \\      /  F ield         | OpenFOAM: The Open Source CFD Toolbox           |
|  \\    /   O peration     | Version:  2.4.0                                 |
|   \\  /    A nd           | Web:      www.OpenFOAM.org                      |
|    \\/     M anipulation  |                                                 |
\*---------------------------------------------------------------------------*/
FoamFile
{
    version     2.0;
    format      ascii;
    class       dictionary;
    object      changeDictionaryDict;
}
// * * * * * * * * * * * * * * * * * * * * * * * * * * * * * * * * * * * * * //

dictionaryReplacement
{
    boundary
    {
        ".*"
        {
            type            patch;
	    //sampleMode      nearestCell;
            //sampleRegion    region0;
            //samplePatch     none;
            //offsetMode      uniform;
            //offset          (3.3 0 0);		
        }
    }

    alphat
    {
        internalField   uniform 0;

        boundaryField
        {
            ".*"
            {
                type            zeroGradient;
		value 		uniform 0;
		refValue 		uniform 0;
            }
        }
    }
    epsilon
    {
        internalField   uniform 0;

        boundaryField
        {
            ".*"
            {
                type            zeroGradient;
		value 		uniform 0;
		refValue 		uniform 0;
            }
        }
    }
    gcr
    {
        internalField   uniform 0;

        boundaryField
        {
            ".*"
            {
                type            zeroGradient;
		value 		uniform 0;
		refValue 		uniform 0;
            }
        }
    }
    k
    {
        internalField   uniform 0;

        boundaryField
        {
            ".*"
            {
                type            zeroGradient;
		value 		uniform 0;
		refValue 		uniform 0;
            }
        }
    }
    mut
    {
        internalField   uniform 0;

        boundaryField
        {
            ".*"
            {
                type            zeroGradient;
		value 		uniform 0;
		refValue 		uniform 0;
            }
        }
    }
    p
    {
        internalField   uniform 0;

        boundaryField
        {
            ".*"
            {
                type            zeroGradient;
		value 		uniform 0;
		refValue 		uniform 0;
            }
        }
    }
    p_rgh
    {
        internalField   uniform 0;

        boundaryField
        {
            ".*"
            {
                type            zeroGradient;
		value 		uniform 0;
		refValue 		uniform 0;
		gradient	uniform 0;
            }
        }
    }
    T
    {
        internalField   uniform 300;

        boundaryField
        {
            ".*"
            {
                type            zeroGradient;
		value 		uniform 300;
		refValue 		uniform 0;
            }
        }
    }
    w
    {
        internalField   uniform 0;

        boundaryField
        {
            ".*"
            {
                type            zeroGradient;
		value 		uniform 0;
		refValue 		uniform 0;
            }
        }
    }
    U
    {
        internalField   uniform (0 0 0);

        boundaryField
        {
            ".*"
            {
                type            zeroGradient;
		value 		uniform 0;
		refValue 		uniform 0;
            }
        }
    }


}

// ************************************************************************* //

