/*--------------------------------*- C++ -*----------------------------------*\
| =========                 |                                                 |
| \\      /  F ield         | OpenFOAM: The Open Source CFD Toolbox           |
|  \\    /   O peration     | Version:  2.2.2                                 |
|   \\  /    A nd           | Web:      www.OpenFOAM.org                      |
|    \\/     M anipulation  |                                                 |
\*---------------------------------------------------------------------------*/
FoamFile
{
    version     2.0;
    format      ascii;
    class       vectorList;
    location    "constant";
    object      sunPosVector;
}
// * * * * * * * * * * * * * * * * * * * * * * * * * * * * * * * * * * * * * //

144
(
(	-0.10881585	-0.324208534	-0.939706304	)
(	-0.068977946	-0.326836117	-0.942560447	)
(	-0.029008739	-0.328284244	-0.944133438	)
(	0.011015689	-0.32855016	-0.944422282	)
(	0.051019147	-0.327633358	-0.94342643	)
(	0.090925487	-0.325535584	-0.941147777	)
(	0.130658746	-0.322260831	-0.937590662	)
(	0.170143288	-0.317815333	-0.932761854	)
(	0.209303953	-0.312207551	-0.926670546	)
(	0.248066196	-0.30544816	-0.919328333	)
(	0.28635623	-0.297550028	-0.910749192	)
(	0.32410117	-0.288528189	-0.900949453	)
(	0.361229164	-0.278399816	-0.88994777	)
(	0.397669538	-0.26718419	-0.877765087	)
(	0.433352926	-0.254902659	-0.864424592	)
(	0.468211401	-0.241578604	-0.849951682	)
(	0.50217861	-0.227237386	-0.834373906	)
(	0.535189893	-0.211906305	-0.817720916	)
(	0.567182412	-0.195614544	-0.800024413	)
(	0.598095266	-0.178393117	-0.781318084	)
(	0.627869613	-0.160274804	-0.761637536	)
(	0.656448774	-0.141294095	-0.741020233	)
(	0.683778347	-0.121487122	-0.719505421	)
(	0.70980631	-0.100891587	-0.697134055	)
(	0.734483115	-0.079546695	-0.673948719	)
(	0.757761791	-0.057493079	-0.649993549	)
(	0.779598024	-0.034772717	-0.625314145	)
(	0.799950247	-0.011428859	-0.599957484	)
(	0.81877972	0.012494058	-0.573971836	)
(	0.836050599	0.036950495	-0.547406665	)
(	0.851730009	0.061893898	-0.520312539	)
(	0.865788101	0.087276787	-0.492741033	)
(	0.878198117	0.113050843	-0.464744633	)
(	0.888936433	0.139167004	-0.436376629	)
(	0.897982608	0.165575557	-0.407691023	)
(	0.905319422	0.192226231	-0.378742419	)
(	0.910932909	0.219068294	-0.349585923	)
(	0.914812384	0.246050653	-0.320277035	)
(	0.916950461	0.273121944	-0.290871546	)
(	0.91734307	0.300230635	-0.261425433	)
(	0.915989465	0.327325125	-0.231994746	)
(	0.912892223	0.354353835	-0.202635509	)
(	0.908057237	0.381265317	-0.173403609	)
(	0.901493714	0.408008343	-0.14435469	)
(	0.893214145	0.434532005	-0.115544049	)
(	0.883234293	0.460785814	-0.087026529	)
(	0.871573154	0.486719795	-0.058856414	)
(	0.858252927	0.512284581	-0.031087328	)
(	0.843298966	0.537431508	-0.00377213	)
(	0.826739737	0.562112707	0.023037183	)
(	0.808606762	0.586281197	0.049289579	)
(	0.788934559	0.60989097	0.074935084	)
(	0.767760573	0.632897085	0.09992488	)
(	0.745125112	0.655255748	0.124211399	)
(	0.721071263	0.676924399	0.147748409	)
(	0.695644813	0.697861789	0.170491107	)
(	0.668894165	0.718028063	0.192396199	)
(	0.640870238	0.737384833	0.21342199	)
(	0.611626378	0.755895254	0.233528455	)
(	0.581218252	0.773524088	0.252677319	)
(	0.549703745	0.790237779	0.270832133	)
(	0.517142845	0.806004512	0.287958338	)
(	0.483597535	0.820794272	0.304023332	)
(	0.449131669	0.834578908	0.318996536	)
(	0.413810856	0.847332179	0.332849446	)
(	0.377702329	0.859029809	0.345555693	)
(	0.340874826	0.869649531	0.357091091	)
(	0.303398447	0.879171129	0.36743368	)
(	0.265344532	0.887576478	0.376563773	)
(	0.226785519	0.894849579	0.38446399	)
(	0.187794807	0.900976586	0.391119293	)
(	0.148446617	0.905945837	0.396517013	)
(	0.10881585	0.909747873	0.400646876	)
(	0.068977946	0.912375455	0.403501019	)
(	0.029008739	0.913823582	0.40507401	)
(	-0.011015689	0.914089498	0.405362854	)
(	-0.051019147	0.913172697	0.404367002	)
(	-0.090925487	0.911074923	0.40208835	)
(	-0.130658746	0.90780017	0.398531234	)
(	-0.170143288	0.903354671	0.393702426	)
(	-0.209303953	0.897746889	0.387611118	)
(	-0.248066196	0.890987498	0.380268905	)
(	-0.28635623	0.883089366	0.371689764	)
(	-0.32410117	0.874067527	0.361890025	)
(	-0.361229164	0.863939154	0.350888342	)
(	-0.397669538	0.852723528	0.338705659	)
(	-0.433352926	0.840441998	0.325365165	)
(	-0.468211401	0.827117942	0.310892254	)
(	-0.50217861	0.812776724	0.295314478	)
(	-0.535189893	0.797445643	0.278661488	)
(	-0.567182412	0.781153882	0.260964986	)
(	-0.598095266	0.763932455	0.242258656	)
(	-0.627869613	0.745814142	0.222578108	)
(	-0.656448774	0.726833434	0.201960805	)
(	-0.683778347	0.70702646	0.180445993	)
(	-0.70980631	0.686430925	0.158074627	)
(	-0.734483115	0.665086034	0.134889292	)
(	-0.757761791	0.643032417	0.110934122	)
(	-0.779598024	0.620312055	0.086254717	)
(	-0.799950247	0.596968197	0.060898057	)
(	-0.81877972	0.573045281	0.034912408	)
(	-0.836050599	0.548588843	0.008347237	)
(	-0.851730009	0.52364544	-0.018746889	)
(	-0.865788101	0.498262551	-0.046318394	)
(	-0.878198117	0.472488495	-0.074314795	)
(	-0.888936433	0.446372334	-0.102682798	)
(	-0.897982608	0.419963781	-0.131368404	)
(	-0.905319422	0.393313108	-0.160317008	)
(	-0.910932909	0.366471044	-0.189473505	)
(	-0.914812384	0.339488685	-0.218782393	)
(	-0.916950461	0.312417394	-0.248187881	)
(	-0.91734307	0.285308703	-0.277633995	)
(	-0.915989465	0.258214214	-0.307064682	)
(	-0.912892223	0.231185503	-0.336423919	)
(	-0.908057237	0.204274021	-0.365655819	)
(	-0.901493714	0.177530996	-0.394704738	)
(	-0.893214145	0.151007334	-0.423515378	)
(	-0.883234293	0.124753524	-0.452032899	)
(	-0.871573154	0.098819543	-0.480203014	)
(	-0.858252927	0.073254757	-0.5079721	)
(	-0.843298966	0.04810783	-0.535287298	)
(	-0.826739737	0.023426631	-0.562096611	)
(	-0.808606762	-0.000741858	-0.588349007	)
(	-0.788934559	-0.024351632	-0.613994512	)
(	-0.767760573	-0.047357747	-0.638984308	)
(	-0.745125112	-0.06971641	-0.663270827	)
(	-0.721071263	-0.09138506	-0.686807837	)
(	-0.695644813	-0.11232245	-0.709550534	)
(	-0.668894165	-0.132488725	-0.731455627	)
(	-0.640870238	-0.151845495	-0.752481418	)
(	-0.611626378	-0.170355916	-0.772587882	)
(	-0.581218252	-0.18798475	-0.791736747	)
(	-0.549703745	-0.204698441	-0.809891561	)
(	-0.517142845	-0.220465174	-0.827017766	)
(	-0.483597535	-0.235254934	-0.84308276	)
(	-0.449131669	-0.24903957	-0.858055963	)
(	-0.413810856	-0.261792841	-0.871908874	)
(	-0.377702329	-0.273490471	-0.884615121	)
(	-0.340874826	-0.284110192	-0.896150519	)
(	-0.303398447	-0.29363179	-0.906493108	)
(	-0.265344532	-0.30203714	-0.915623201	)
(	-0.226785519	-0.30931024	-0.923523418	)
(	-0.187794807	-0.315437248	-0.930178721	)
(	-0.148446617	-0.320406499	-0.935576441	)
)

// ************************************************************************* //
