
/*--------------------------------*- C++ -*----------------------------------*\
| =========                 |                                                 |
| \\      /  F ield         | OpenFOAM: The Open Source CFD Toolbox           |
|  \\    /   O peration     | Version:  2.4.1                                 |
|   \\  /    A nd           | Web:      www.OpenFOAM.org                      |
|    \\/     M anipulation  |                                                 |
\*---------------------------------------------------------------------------*/
FoamFile
{
    version     2.0;
    format      ascii;
    class       dictionary;
    object      blockMeshDict;
}
// * * * * * * * * * * * * * * * * * * * * * * * * * * * * * * * * * * * * * //

convertToMeters 1;

vertices
(
		(-25 -25 0) // vertex #0
		(-5 -25 0) // vertex #1
		(5 -25 0) // vertex #2
		(15 -25 0) // vertex #3
		(50 -25 0) // vertex #4
		(-25 -5 0) // vertex #5
		(-5 -5 0) // vertex #6
		(5 -5 0) // vertex #7
		(15 -5 0) // vertex #8
		(50 -5 0) // vertex #9
		(-25 5 0) // vertex #10
		(-5 5 0) // vertex #11
		(5 5 0) // vertex #12
		(15 5 0) // vertex #13
		(50 5 0) // vertex #14
		(-25 25 0) // vertex #15
		(-5 25 0) // vertex #16
		(5 25 0) // vertex #17
		(15 25 0) // vertex #18
		(50 25 0) // vertex #19
		(-25 -25 5) // vertex #20
		(-5 -25 5) // vertex #21
		(5 -25 5) // vertex #22
		(15 -25 5) // vertex #23
		(50 -25 5) // vertex #24
		(-25 -5 5) // vertex #25
		(-5 -5 5) // vertex #26
		(5 -5 5) // vertex #27
		(15 -5 5) // vertex #28
		(50 -5 5) // vertex #29
		(-25 5 5) // vertex #30
		(-5 5 5) // vertex #31
		(5 5 5) // vertex #32
		(15 5 5) // vertex #33
		(50 5 5) // vertex #34
		(-25 25 5) // vertex #35
		(-5 25 5) // vertex #36
		(5 25 5) // vertex #37
		(15 25 5) // vertex #38
		(50 25 5) // vertex #39
		(-25 -25 10) // vertex #40
		(-5 -25 10) // vertex #41
		(5 -25 10) // vertex #42
		(15 -25 10) // vertex #43
		(50 -25 10) // vertex #44
		(-25 -5 10) // vertex #45
		(-5 -5 10) // vertex #46
		(5 -5 10) // vertex #47
		(15 -5 10) // vertex #48
		(50 -5 10) // vertex #49
		(-25 5 10) // vertex #50
		(-5 5 10) // vertex #51
		(5 5 10) // vertex #52
		(15 5 10) // vertex #53
		(50 5 10) // vertex #54
		(-25 25 10) // vertex #55
		(-5 25 10) // vertex #56
		(5 25 10) // vertex #57
		(15 25 10) // vertex #58
		(50 25 10) // vertex #59
		(-25 -25 30) // vertex #60
		(-5 -25 30) // vertex #61
		(5 -25 30) // vertex #62
		(15 -25 30) // vertex #63
		(50 -25 30) // vertex #64
		(-25 -5 30) // vertex #65
		(-5 -5 30) // vertex #66
		(5 -5 30) // vertex #67
		(15 -5 30) // vertex #68
		(50 -5 30) // vertex #69
		(-25 5 30) // vertex #70
		(-5 5 30) // vertex #71
		(5 5 30) // vertex #72
		(15 5 30) // vertex #73
		(50 5 30) // vertex #74
		(-25 25 30) // vertex #75
		(-5 25 30) // vertex #76
		(5 25 30) // vertex #77
		(15 25 30) // vertex #78
		(50 25 30) // vertex #79
);

blocks
(
		hex (0 1 6 5 20 21 26 25)	(20 20 10) simpleGrading (1 1 1) // block #0
		hex (1 2 7 6 21 22 27 26)	(20 20 10) simpleGrading (-3 1 1) // block #1
		hex (2 3 8 7 22 23 28 27)	(30 20 10) simpleGrading (1 1 1) // block #2
		hex (3 4 9 8 23 24 29 28)	(20 20 10) simpleGrading (1 1 1) // block #3
		hex (5 6 11 10 25 26 31 30)	(20 20 10) simpleGrading (1 -3 1) // block #4
		//		hex (6 7 12 11 26 27 32 31)	(20 20 10) simpleGrading (-3 -3 1) // block #5
		hex (7 8 13 12 27 28 33 32)	(30 20 10) simpleGrading (1 -3 1) // block #6
		hex (8 9 14 13 28 29 34 33)	(20 20 10) simpleGrading (1 -3 1) // block #7
		hex (10 11 16 15 30 31 36 35)	(20 20 10) simpleGrading (1 1 1) // block #8
		hex (11 12 17 16 31 32 37 36)	(20 20 10) simpleGrading (-3 1 1) // block #9
		hex (12 13 18 17 32 33 38 37)	(30 20 10) simpleGrading (1 1 1) // block #10
		hex (13 14 19 18 33 34 39 38)	(20 20 10) simpleGrading (1 1 1) // block #11
		hex (20 21 26 25 40 41 46 45)	(20 20 20) simpleGrading (1 1 1) // block #12
		hex (21 22 27 26 41 42 47 46)	(20 20 20) simpleGrading (-3 1 1) // block #13
		hex (22 23 28 27 42 43 48 47)	(30 20 20) simpleGrading (1 1 1) // block #14
		hex (23 24 29 28 43 44 49 48)	(20 20 20) simpleGrading (1 1 1) // block #15
		hex (25 26 31 30 45 46 51 50)	(20 20 20) simpleGrading (1 -3 1) // block #16
		//		hex (26 27 32 31 46 47 52 51)	(20 20 20) simpleGrading (-3 -3 1) // block #17
		hex (27 28 33 32 47 48 53 52)	(30 20 20) simpleGrading (1 -3 1) // block #18
		hex (28 29 34 33 48 49 54 53)	(20 20 20) simpleGrading (1 -3 1) // block #19
		hex (30 31 36 35 50 51 56 55)	(20 20 20) simpleGrading (1 1 1) // block #20
		hex (31 32 37 36 51 52 57 56)	(20 20 20) simpleGrading (-3 1 1) // block #21
		hex (32 33 38 37 52 53 58 57)	(30 20 20) simpleGrading (1 1 1) // block #22
		hex (33 34 39 38 53 54 59 58)	(20 20 20) simpleGrading (1 1 1) // block #23
		hex (40 41 46 45 60 61 66 65)	(20 20 20) simpleGrading (1 1 1) // block #24
		hex (41 42 47 46 61 62 67 66)	(20 20 20) simpleGrading (-3 1 1) // block #25
		hex (42 43 48 47 62 63 68 67)	(30 20 20) simpleGrading (1 1 1) // block #26
		hex (43 44 49 48 63 64 69 68)	(20 20 20) simpleGrading (1 1 1) // block #27
		hex (45 46 51 50 65 66 71 70)	(20 20 20) simpleGrading (1 -3 1) // block #28
		hex (46 47 52 51 66 67 72 71)	(20 20 20) simpleGrading (-3 -3 1) // block #29
		hex (47 48 53 52 67 68 73 72)	(30 20 20) simpleGrading (1 -3 1) // block #30
		hex (48 49 54 53 68 69 74 73)	(20 20 20) simpleGrading (1 -3 1) // block #31
		hex (50 51 56 55 70 71 76 75)	(20 20 20) simpleGrading (1 1 1) // block #32
		hex (51 52 57 56 71 72 77 76)	(20 20 20) simpleGrading (-3 1 1) // block #33
		hex (52 53 58 57 72 73 78 77)	(30 20 20) simpleGrading (1 1 1) // block #34
		hex (53 54 59 58 73 74 79 78)	(20 20 20) simpleGrading (1 1 1) // block #35
);

edges
(
);

patches
(
		patch inlet
		(
				(0 5 25 20)
				(5 10 30 25)
				(10 15 35 30)
				(20 25 45 40)
				(25 30 50 45)
				(30 35 55 50)
				(40 45 65 60)
				(45 50 70 65)
				(50 55 75 70)
		)
		patch outlet
		(
				(4 9 29 24)
				(9 14 34 29)
				(14 19 39 34)
				(24 29 49 44)
				(29 34 54 49)
				(34 39 59 54)
				(44 49 69 64)
				(49 54 74 69)
				(54 59 79 74)
		)
		patch sky
		(
				(60 61 66 65)
				(61 62 67 66)
				(62 63 68 67)
				(63 64 69 68)
				(65 66 71 70)
				(66 67 72 71)
				(67 68 73 72)
				(68 69 74 73)
				(70 71 76 75)
				(71 72 77 76)
				(72 73 78 77)
				(73 74 79 78)
		)
		wall ground
		(
				(0 1 6 5)
				(1 2 7 6)
				(2 3 8 7)
				(3 4 9 8)
				(5 6 11 10)
				//				(6 7 12 11)
				(7 8 13 12)
				(8 9 14 13)
				(10 11 16 15)
				(11 12 17 16)
				(12 13 18 17)
				(13 14 19 18)
		)
		symmetryPlane front
		(
				(0 1 21 20)
				(1 2 22 21)
				(2 3 23 22)
				(3 4 24 23)
				(20 21 41 40)
				(21 22 42 41)
				(22 23 43 42)
				(23 24 44 43)
				(40 41 61 60)
				(41 42 62 61)
				(42 43 63 62)
				(43 44 64 63)
		)
		symmetryPlane back
		(
				(15 16 36 35)
				(16 17 37 36)
				(17 18 38 37)
				(18 19 39 38)
				(35 36 56 55)
				(36 37 57 56)
				(37 38 58 57)
				(38 39 59 58)
				(55 56 76 75)
				(56 57 77 76)
				(57 58 78 77)
				(58 59 79 78)
		)
		wall cube
		(
				(6 11 31 26)
				(26 31 51 46)
				(6 7 27 26)
				(26 27 47 46)
				(7 12 32 27)
				(27 32 52 47)
				(11 12 32 31)
				(31 32 52 51)
				(46 47 52 51)
		)
);

mergePatchPairs
(
);
// * * * * * * * * * * * * * * * * * * * * * * * * * * * * * * * * * * * * * //
