/*--------------------------------*- C++ -*----------------------------------*| =========                 |                                                 |
| \\      /  F ield         | OpenFOAM: The Open Source CFD Toolbox           |
|  \\    /   O peration     | Version:  2.4.x                                 |
|   \\  /    A nd           | Web:      www.OpenFOAM.org                      |
|    \\/     M anipulation  |                                                 |
\*---------------------------------------------------------------------------*/
FoamFile
{
    version     2.0;
    format      ascii;
    class       scalarList;
    location    "constant";
    object      asource;
}
// * * * * * * * * * * * * * * * * * * * * * * * * * * * * * * * * * * * * * //


// pmin	(3.0 0.9 0.01);
// np	(21 22 23);
// dp	(0.012000720000000076 0.009550781249999973 0.00955078125);
10626
(
0.0
0.0
0.0
0.0
0.0
0.0
0.0
0.0
0.0
0.0
0.0
0.0
0.0
0.0
0.0
0.0
0.0
0.0
0.0
0.0
0.0
0.0
0.0
0.0
0.0
0.0
0.0
0.0
0.0
0.0
0.0
0.0
0.0
0.0
0.0
0.0
0.0
0.0
0.0
0.0
0.0
0.0
0.0
0.0
0.0
0.0
0.0
0.0
0.0
0.0
0.0
0.0
0.0
0.0
0.0
0.0
0.0
0.0
0.0
0.0
0.0
0.0
0.0
0.0
0.0
0.0
0.0
0.0
0.0
0.0
0.0
0.0
0.0
0.0
0.0
0.0
0.0
0.0
0.0
0.0
0.0
0.0
0.0
0.0
0.0
0.0
0.0
0.0
0.0
0.0
0.0
0.0
0.0
0.0
0.0
0.0
0.0
0.0
0.0
0.0
0.0
0.0
0.0
0.0
0.0
0.0
0.0
0.0
0.0
0.0
0.0
0.0
0.0
0.0
0.0
0.0
0.0
0.0
0.0
0.0
0.0
0.0
0.0
0.0
0.0
0.0
0.0
0.0
0.0
0.0
0.0
0.0
0.0
0.0
0.0
0.0
0.8955490035811358
0.0
0.0
0.0
0.0
0.0
0.0
0.0
0.0
0.0
0.0
0.0
0.0
0.0
0.0
0.0
0.0
0.0
54.300121250469765
140.6907484625969
6.567359359594995
124.6305696650418
0.0
0.0
0.0
0.0
0.0
0.0
0.0
0.0
0.0
0.0
0.0
0.0
0.0
0.0
0.0
0.0
0.0
18.090089872339043
121.25733508488622
246.5744923193402
47.43424555634764
0.0
10.328665174635784
0.11940653381080141
0.0
0.0
0.0
0.0
0.0
0.0
0.0
0.0
0.0
0.0
0.0
0.0
0.0
0.6268843025068117
86.53988537939074
80.21133908741734
293.68036990770815
63.28546291973384
5.10462932041249
118.33187500652113
64.4496766243893
6.26884302506795
0.0
0.0
0.0
0.0
0.0
0.0
0.0
0.0
0.0
0.0
0.0
32.00095106129937
186.871225413931
273.85888529511226
166.24374669811206
94.74908457888448
0.8955490035811358
4.000118882662389
0.0
95.82374338318185
2.119465975142038
19.821484612595874
0.4477745017905679
0.0
0.0
0.0
0.0
0.0
0.0
0.0
0.0
0.0
0.41792286833784664
41.971396634502746
47.64320699051661
5.940475057088184
33.55323600084004
2.8060535445542087
273.14244609224744
3.403086213608299
87.16676968189755
2.656795377290686
87.37573111606643
4.000118882662389
0.0
0.0
0.0
0.0
0.0
0.0
0.0
0.0
0.0
0.0
0.0
0.4776261352432891
85.8831494434312
185.22938557403222
78.59935088097131
11.37347234548044
0.0
70.95733271707894
18.388606206866086
0.0
0.0
0.0
0.0
0.0
0.0
0.0
0.0
0.0
0.0
0.0
0.0
0.0
37.70261305076595
35.58314707562391
35.19507584073878
161.0495624773415
0.0
0.0
0.0
0.0
0.0
0.0
0.0
0.0
0.0
0.0
0.0
0.0
0.0
0.0
0.0
0.0
0.0
37.73246468421867
121.76481285358216
1.940356174425794
153.3478410465437
3.940415615757031
0.0
0.0
0.0
0.0
0.0
0.0
0.0
0.0
0.0
0.0
0.0
0.0
0.0
0.0
0.059703266905442455
0.0
0.0
0.0
6.477804459236915
18.328902939960642
10.865994576784514
0.0
0.0
0.0
0.0
0.0
0.0
0.0
0.0
0.0
0.0
0.0
0.0
0.0
0.0
0.0
0.0
0.0
0.0
0.0
0.0
0.0
0.0
0.0
0.0
0.0
0.0
0.0
0.0
0.0
0.0
0.0
0.0
0.0
0.0
0.0
0.0
94.21175517673583
181.67704119316045
0.0
0.0
0.0
0.0
0.0
0.0
0.0
0.0
0.0
0.0
0.0
0.0
0.0
0.0
0.0
0.0
0.0
0.0
0.0
6.089733224351706
41.493770499259455
0.0
0.0
0.0
0.0
0.0
0.0
0.0
0.0
0.0
0.0
0.0
0.0
0.0
0.0
0.0
0.0
0.0
0.0
0.0
0.0
0.0
0.0
0.0
0.0
0.0
0.0
0.0
0.0
0.0
0.0
0.0
0.0
0.0
0.0
0.0
0.0
0.0
0.0
0.0
0.0
0.0
0.0
0.0
0.0
0.0
0.0
0.0
0.0
0.0
0.0
0.0
0.0
0.0
0.0
0.0
0.0
0.0
0.0
0.0
0.0
0.0
0.0
0.0
0.0
0.0
0.0
0.0
0.0
0.0
0.0
0.0
0.0
0.0
0.0
0.0
0.0
0.0
0.0
0.0
0.0
0.0
0.0
0.0
0.0
0.0
0.0
0.0
0.0
0.0
0.0
0.0
0.0
0.0
0.0
0.0
0.0
0.0
0.0
0.0
0.0
0.0
0.0
0.0
0.0
0.0
0.0
0.0
0.0
0.0
0.0
0.0
0.0
0.0
0.0
0.0
0.0
0.0
0.0
0.0
0.0
0.0
0.0
0.0
0.0
0.0
0.0
0.0
0.0
0.0
0.0
0.0
0.0
0.0
0.0
0.0
0.0
0.0
0.0
0.0
0.0
0.0
0.0
0.0
0.0
0.0
0.0
0.0
0.0
0.0
0.0
0.0
0.0
0.0
0.0
0.0
0.0
0.0
0.0
0.0
0.0
0.0
0.0
0.0
0.0
0.0
0.0
0.0
0.0
0.0
0.0
0.0
0.0
0.0
0.0
0.0
0.0
0.0
0.0
0.0
0.0
0.0
0.0
0.0
0.0
0.0
0.0
0.0
0.0
0.0
0.0
0.0
0.0
0.08358457366753592
0.0
0.0
0.0
0.0
0.0
0.0
0.0
0.0
0.0
0.0
0.0
0.0
0.0
0.0
0.0
0.0
38.72751913264212
4.179228683378634
36.05281277527981
76.36843880760587
0.0
0.0
0.0
0.0
0.0
0.0
0.0
0.0
0.0
0.0
0.0
0.0
0.0
0.0
0.0
0.0
10.61524085578174
67.84281229351336
138.80611533728285
125.2932759276919
51.43237433011327
12.036178608130518
3.705582765929041
60.236616089764254
7.411165531858165
0.0
0.0
0.0
0.0
0.0
0.0
0.0
0.0
0.0
0.0
0.0
9.751533594550173
64.36012172403123
51.23734365822224
205.17226682933577
251.64528978850637
12.119763181798053
0.0
31.39993817445158
91.33007749410139
19.809543959214782
0.0
0.0
0.0
0.0
0.0
0.0
0.0
0.0
0.0
0.0
0.0
0.6686765893406215
24.741033805601575
139.55837650029102
122.70215414399709
208.4042036778153
154.60359976045416
68.79010412841255
17.692068092969592
163.1013647499907
48.200437481633735
0.0
0.0
0.0
0.0
0.0
0.0
0.0
0.0
0.0
0.0
0.0
44.188377945590254
208.4042036778153
192.30024248452955
165.2188406162359
47.754653088740014
5.432997288392257
0.08358457366753592
19.391621090876935
23.626572823367315
4.764320699051635
0.0
0.0
0.0
0.0
0.0
0.0
0.0
0.0
0.0
0.0
0.0
22.65141946391226
175.44402012823565
64.27653715036361
32.96018354957965
0.9194303103433128
0.0
314.6680583338563
75.50473154637422
8.107703645754576
10.698825429449359
0.0
0.0
0.0
0.0
0.0
0.0
0.0
0.0
0.0
0.0
0.0
0.027861524555873145
11.896870985351235
7.021104188076108
61.54610774388954
97.6546435682811
85.0055114199217
3.204075323923658
3.120490750256039
84.36469635513696
110.91672925686936
0.0
0.0
0.0
0.0
0.0
0.0
0.0
0.0
0.0
0.0
0.0
1.1980455559018772
10.197317987443894
51.125897559998826
55.277264718821584
88.9618479068535
96.9302439298288
0.0
0.0
0.0
0.0
0.0
0.0
0.0
0.0
0.0
0.0
0.0
0.0
0.0
0.0
0.0
14.097931425263962
16.60546863529113
70.7404108473226
165.8039326319089
0.5293689665612556
43.714732028140666
5.293689665612974
0.0
0.0
0.0
0.0
0.0
0.0
0.0
0.0
0.0
0.0
0.0
0.0
0.0
0.0
11.618255739792671
7.021104188076108
48.45119120263643
64.33226019947534
36.35928954539424
109.41220693085305
126.63062910637305
0.5015074420054662
0.0
0.0
0.0
0.0
0.0
0.0
0.0
0.0
0.0
0.0
0.0
0.0
0.0
0.0
0.0
2.4518141609155006
0.08358457366753592
0.0
30.675538535999294
9.27788767710058
0.0
0.0
0.0
0.0
0.0
0.0
0.0
0.0
0.0
0.0
0.0
0.0
0.0
0.0
0.0
93.14107659023215
152.73687761521165
0.0
0.0
0.0
0.0
0.0
0.0
0.0
0.0
0.0
0.0
0.0
0.0
0.0
0.0
0.0
0.0
0.0
0.0
0.0
15.491007653056867
58.34203241996596
0.0
0.0
0.0
0.0
0.0
0.0
0.0
0.0
0.0
0.0
0.0
0.0
0.0
0.0
0.0
0.0
0.0
0.0
0.0
0.0
0.0
0.0
0.0
0.0
0.0
0.0
0.0
0.0
0.0
0.0
0.0
0.0
0.0
0.0
0.0
0.0
0.0
0.0
0.0
0.0
0.0
0.0
0.0
0.0
0.0
0.0
0.0
0.0
0.0
0.0
0.0
0.0
0.0
0.0
0.0
0.0
0.0
0.0
0.0
0.0
0.0
0.0
0.0
0.0
0.0
0.0
0.0
0.0
0.0
0.0
0.0
0.0
0.0
0.0
0.0
0.0
0.0
0.0
0.0
0.0
0.0
0.0
0.0
0.0
0.0
0.0
0.0
0.0
0.0
0.0
0.0
0.0
0.0
0.0
0.0
0.0
0.0
0.0
0.0
0.0
0.0
0.0
0.0
0.0
0.0
0.0
0.0
0.0
0.0
0.0
0.0
0.0
0.0
0.0
0.0
0.0
0.0
0.0
0.0
0.0
0.0
0.0
0.0
0.0
0.0
0.0
0.0
0.0
0.0
0.0
0.0
0.0
0.0
0.0
0.0
0.0
0.0
0.0
0.0
0.0
0.0
0.0
0.0
0.0
0.0
0.0
0.0
0.0
0.0
0.0
0.0
0.0
0.0
0.0
0.0
0.0
0.0
0.0
0.0
0.0
0.0
0.0
0.0
0.0
0.0
0.0
0.0
0.0
0.0
5.655889484839075
13.28994721314414
6.965381138964444
0.0
0.0
0.0
0.0
0.0
0.0
0.0
0.0
0.0
0.0
0.0
0.0
0.0
0.0
0.0
1.420937752348779
39.981287737655755
4.318536306157916
19.809543959214782
103.17122543034088
118.88512527984466
0.8358457366756933
0.0
0.0
0.0
0.0
0.0
0.0
0.0
0.0
0.0
0.0
0.0
0.0
0.0
0.0
58.23058632174247
179.1496028941647
0.0
84.33683483058117
87.37374100716958
16.438299487956055
0.22289219644690164
13.680008556926115
0.0
0.0
0.0
0.0
0.0
0.0
0.0
0.0
0.0
0.0
0.0
0.0
0.0
105.87379331225908
87.15084881072276
63.94219885569329
116.266141971594
87.03940271249935
79.6282371806412
65.75319795182405
59.59580102497951
9.9465642664412
0.0
0.0
0.0
0.0
0.0
0.0
0.0
0.0
0.0
0.0
0.0
16.020376619618123
30.536230913220013
193.10822669664938
87.17871033527864
245.37644676343834
88.01455607195433
76.64705405316442
105.65090111581226
135.71348611158268
4.792182223607509
0.0
0.0
0.0
0.0
0.0
0.0
0.0
0.0
0.0
0.0
0.0
1.3094916541252861
9.222164627988917
26.91423272095851
93.8097531795727
47.55962241684899
113.4521279914524
86.7607874669407
24.23952636359619
91.44152359232481
66.56118216394395
0.0
0.0
0.0
0.0
0.0
0.0
0.0
0.0
0.0
0.0
0.0
80.01829852442316
93.22466116389968
47.53176089229319
252.48113552518205
69.15230394763873
2.145337390801063
1.2259070804577503
11.506809641569179
48.00540680974271
3.399105995814603
0.0
0.0
0.0
0.0
0.0
0.0
0.0
0.0
0.0
0.0
7.829088400196011
111.41823669887475
132.23079554210045
69.54236529142071
54.30211135936653
8.748518710539324
32.068614763792205
286.2493032868815
172.43497547620302
19.72595938554725
17.162699126408338
0.0
0.0
0.0
0.0
0.0
0.0
0.0
0.0
0.0
0.0
0.0
60.125169991540844
141.28579102275413
37.13941223295827
54.16280373658725
76.47988490582928
73.44297872924076
12.42623995191249
43.38039373347035
28.780954866200926
119.21946357451488
0.0
0.0
0.0
0.0
0.0
0.0
0.0
0.0
0.0
0.0
0.0
60.01372389331735
70.4896571263199
61.016738777328285
118.18858716594816
105.37228587025369
123.53799988067288
16.32685338973256
0.0
0.0
0.0
0.0
0.0
0.0
0.0
0.0
0.0
0.0
0.0
0.0
0.0
0.0
56.447448750167595
90.29920108553468
77.9844072318456
127.21572112204605
37.69664272407541
7.216134859967136
9.054995480653762
2.9533216029208833
0.0
0.0
0.0
0.0
0.0
0.0
0.0
0.0
0.0
0.0
0.0
0.0
0.0
0.0
51.57168195289255
72.32851774700643
48.200437481633735
4.931489846386792
43.18536306157941
165.2188406162359
96.15012124226477
0.13930762277928221
0.0
0.0
0.0
0.0
0.0
0.0
0.0
0.0
0.0
0.0
0.0
0.0
0.0
2.4239526363596275
86.7607874669407
23.12506538136185
2.173198915356936
91.69227731332758
77.34359216706085
0.0
0.0
0.0
0.0
0.0
0.0
0.0
0.0
0.0
0.0
0.0
0.0
0.0
0.0
0.0
77.2878691179491
121.25335486709254
0.0
6.101673877732795
34.71545959659865
11.03316372411967
0.0
0.0
0.0
0.0
0.0
0.0
0.0
0.0
0.0
0.0
0.0
0.0
0.0
0.0
0.0
21.45337390801038
56.001664357273874
0.0
0.8637072612315664
0.0
0.0
0.0
0.0
0.0
0.0
0.0
0.0
0.0
0.0
0.0
0.0
0.0
0.0
0.0
0.0
0.0
0.0
0.0
0.0
0.0
0.0
0.0
0.0
0.0
0.0
0.0
0.0
0.0
0.0
0.0
0.0
0.0
0.0
0.0
0.0
0.0
0.0
0.0
0.0
0.0
0.0
0.0
0.0
0.0
0.0
0.0
0.0
0.0
0.0
0.0
0.0
0.0
0.0
0.0
0.0
0.0
0.0
0.0
0.0
0.0
0.0
0.0
0.0
0.0
0.0
0.0
0.0
0.0
0.0
0.0
0.0
0.0
0.0
0.0
0.0
0.0
0.0
0.0
0.0
0.0
0.0
0.0
0.0
0.0
0.0
0.0
0.0
0.0
0.0
0.0
0.0
0.0
0.0
0.0
0.0
0.0
0.0
0.0
0.0
0.0
0.0
0.0
0.0
0.0
0.0
0.0
0.0
0.0
0.0
0.0
0.0
0.0
0.0
0.0
0.0
0.0
0.0
0.0
0.0
0.0
0.0
0.0
0.0
0.0
0.0
0.0
0.0
0.0
0.0
0.0
0.0
0.0
0.0
0.0
0.0
0.0
0.0
0.0
0.0
0.0
0.0
0.0
0.0
0.0
0.0
2.758290931029938
39.340472672871
5.48872033750392
0.0
0.0
0.0
0.0
0.0
0.0
0.0
0.0
0.0
0.0
0.0
0.0
0.0
0.0
0.0
0.0
18.08212943675165
11.618255739792671
111.8082980426568
167.33631648248107
13.902900753372933
0.0
0.0
0.0
0.0
0.0
0.0
0.0
0.0
0.0
0.0
0.0
0.0
0.0
0.0
0.0
2.758290931029938
37.557335101296125
55.24940319426572
137.77523892871613
138.4996385671684
56.69820247117037
1.1701840313460041
0.0
0.0
0.0
0.0
0.0
0.0
0.0
0.0
0.0
0.0
0.0
0.0
0.0
0.975153359455059
38.9782728536449
109.05000711162687
96.95810545438468
121.42052401442768
33.68458318803193
53.49412714724671
3.482690569482222
21.648404579901406
1.1980455559018772
0.0
0.0
0.0
0.0
0.0
0.0
0.0
0.0
0.0
0.0
0.0
19.252313468097654
68.00998144084852
162.87847255354387
93.28038421301143
182.15864754619733
136.43788575003498
130.39193492141385
54.32997288392241
77.2878691179491
14.515854293601809
0.0
0.0
0.0
0.0
0.0
0.0
0.0
0.0
0.0
0.0
0.0
1.755276047019006
55.22154166970984
145.40929665702112
141.87088303842722
97.20885917538737
64.387983248587
192.021627238971
73.52656330290839
112.78345140211178
72.88574823812364
0.5015074420054662
0.0
0.0
0.0
0.0
0.0
0.0
0.0
0.0
0.0
0.0
31.483522748119118
29.44963145554155
56.69820247117037
125.87836794336488
93.36396878667897
120.3617860813051
131.22778065808953
119.38663272185003
141.06289882630733
117.68707972394277
0.0
0.0
0.0
0.0
0.0
0.0
0.0
0.0
0.0
0.0
0.0
64.387983248587
138.193161797054
115.84821910325616
198.03971654303626
69.54236529142071
79.60037565608532
102.72544103744715
26.217694607062015
34.074644531813895
48.22829900618961
2.8975985538092206
0.0
0.0
0.0
0.0
0.0
0.0
0.0
0.0
0.0
6.101673877732795
200.18505393383722
91.05146224854283
53.60557324547012
66.56118216394395
24.60172618282229
76.84208472505539
166.80694751591983
92.89032286922946
28.725231817089263
68.79010412841255
35.27269008771578
0.0
0.0
0.0
0.0
0.0
0.0
0.0
0.0
0.0
1.1144609822343412
65.41885965715373
28.8088163907568
18.890113648871473
85.28412666548026
54.63644965403684
85.81349563204161
154.9936611042361
119.74883254107623
43.2132245861352
168.144300694601
11.116748297787206
0.0
0.0
0.0
0.0
0.0
0.0
0.0
0.0
0.0
6.965381138964444
34.966213317601344
42.76744019324148
61.15604640010756
170.65183790462814
197.1481477572488
126.88138282737573
40.343487556881854
26.886371196402635
13.596423983258495
33.96319843359049
0.0
0.0
0.0
0.0
0.0
0.0
0.0
0.0
0.0
0.0
0.0
52.24035854223309
86.70506441782905
120.86329352331047
73.22008653279396
124.87535305935404
106.5424699015997
31.789999518233554
4.151367158822761
0.0
0.0
0.0
0.0
0.0
0.0
0.0
0.0
0.0
0.0
0.0
0.0
0.0
0.41792286833784664
56.25241807827665
183.1059393810965
105.8180702631474
0.0
38.699657608086255
138.83397686183872
71.74342573133343
48.00540680974271
0.0
0.0
0.0
0.0
0.0
0.0
0.0
0.0
0.0
0.0
0.0
0.0
0.0
0.0
7.94053449841942
65.08452136248351
80.4362213927611
122.86932329133225
134.9055018994628
1.8945836697982883
14.989500211051402
0.0
0.0
0.0
0.0
0.0
0.0
0.0
0.0
0.0
0.0
0.0
0.0
0.0
0.0
0.0
31.678553420010147
76.53560795494094
23.29223452869701
17.55276047019031
0.0
0.0
0.0
0.0
0.0
0.0
0.0
0.0
0.0
0.0
0.0
0.0
0.0
0.0
0.0
0.0
0.0
2.5075372100271633
12.62127062380352
0.08358457366753592
0.0
0.0
0.0
0.0
0.0
0.0
0.0
0.0
0.0
0.0
0.0
0.0
0.0
0.0
0.0
0.0
0.0
0.0
0.0
0.0
0.0
0.0
0.0
0.0
0.0
0.0
0.0
0.0
0.0
0.0
0.0
0.0
0.0
0.0
0.0
0.0
0.0
0.0
0.0
0.0
0.0
0.0
0.0
0.0
0.0
0.0
0.0
0.0
0.0
0.0
0.0
0.0
0.0
0.0
0.0
0.0
0.0
0.0
0.0
0.0
0.0
0.0
0.0
0.0
0.0
0.0
0.0
0.0
0.0
0.0
0.0
0.0
0.0
0.0
0.0
0.0
0.0
0.0
0.0
0.0
0.0
0.0
0.0
0.0
0.0
0.0
0.0
0.0
0.0
0.0
0.0
0.0
0.0
0.0
0.0
0.0
0.0
0.0
0.0
0.0
0.0
0.0
0.0
0.0
0.0
0.0
0.0
0.0
0.0
0.0
0.0
0.0
0.0
0.0
0.0
0.0
0.0
0.0
0.0
0.0
0.0
0.0
0.0
0.0
0.0
0.0
0.05572304911174629
0.0
0.0
0.0
0.0
0.0
0.0
0.0
0.0
0.0
0.0
0.0
0.0
0.0
0.0
0.0
0.0
12.816301295694549
56.28027960283244
38.11456559241325
27.27643254018461
86.37072612315873
1.6995529979073432
0.0
0.0
0.0
0.0
0.0
0.0
0.0
0.0
0.0
0.0
0.0
0.0
0.0
3.482690569482222
4.513566978048944
52.7975890333503
57.50618668329019
122.47926194755028
116.23828044703814
90.96787767487523
15.156669358386557
0.0
0.0
0.0
0.0
0.0
0.0
0.0
0.0
0.0
0.0
0.0
0.0
0.0
33.545275565252645
42.51668647223878
210.13161820027844
148.2233106371627
145.38143513246524
160.09232009795807
51.293066707333985
47.281007171290426
3.5384136185938853
0.0
0.0
0.0
0.0
0.0
0.0
0.0
0.0
0.0
0.0
0.0
0.0
3.120490750256039
116.07111129970298
94.11622994968712
125.96195251703242
157.4733367897075
86.53789527049389
123.14793853689082
60.20875456520837
82.5536972590062
39.201165050091724
0.6408150647847483
0.0
0.0
0.0
0.0
0.0
0.0
0.0
0.0
0.0
0.0
81.74571304688638
121.33693944076008
70.0160112088703
138.61108466539181
222.94791949597297
104.98222452647164
109.02214558707098
54.803618801372
111.50182127254237
66.9791050322818
12.036178608130518
0.0
0.0
0.0
0.0
0.0
0.0
0.0
0.0
0.0
0.0
94.75704501447187
90.633539380205
168.47863898927122
79.99043699986728
214.70090822743913
178.45306478026828
103.70059439690222
127.43861331849295
59.20573968119753
114.53872744913079
55.24940319426572
0.0
0.0
0.0
0.0
0.0
0.0
0.0
0.0
0.0
0.027861524555873145
21.620543055345536
88.59964808762734
71.82701030500105
178.73168002582685
105.45587044392123
142.09377523487404
148.8084026528357
102.9204717093382
44.66202386303985
41.15147176900175
0.0
0.0
0.0
0.0
0.0
0.0
0.0
0.0
0.0
0.0
20.22746682755263
20.33891292577612
142.12163675942992
157.94698270715708
199.71140801638765
34.77118264571039
103.33839457767604
188.90113648871488
71.96631792778034
37.78022729774295
2.061752817133444
35.60702838238609
0.0
0.0
0.0
0.0
0.0
0.0
0.0
0.0
2.6468448328064453
32.9044605004679
162.6277188325411
99.38205809074422
82.80445098000898
123.81661512623145
69.98814968431442
48.980560169197766
146.3844500164761
80.15760614720244
73.55442482746419
47.03025345028773
17.803514191193003
0.0
0.0
0.0
0.0
0.0
0.0
0.0
0.0
0.0
17.134837601852468
43.12964001246766
31.39993817445158
98.04470491206307
161.5689808994185
118.30003326417156
90.94001615031942
196.42374811879645
124.42956866646031
145.24212750968596
92.77887677100595
104.78719385458061
0.0
0.0
0.0
0.0
0.0
0.0
0.0
0.0
0.0
46.08296161538855
41.987317505677446
97.34816679816664
158.81068996838866
152.01247797675936
239.02401916470285
91.07932377309871
20.060297680217474
68.34431973551882
39.73053401665306
24.183803314484447
0.0
0.0
0.0
0.0
0.0
0.0
0.0
0.0
0.0
0.0
0.0
13.902900753372933
47.08597649939948
150.06217125784934
103.17122543034088
110.02516047108192
83.86318891313158
83.80746586401982
25.13109514938363
0.0
0.0
0.0
0.0
0.0
0.0
0.0
0.0
0.0
0.0
0.0
0.0
0.0
8.692795661427578
98.96413522240638
183.2452470038758
136.1592705044764
20.924004941449127
51.181620609110496
91.9151695097744
80.04616004897903
45.16353130504523
30.146169569437955
0.0
0.0
0.0
0.0
0.0
0.0
0.0
0.0
0.0
0.0
0.0
0.0
22.846450135803284
83.72388129035228
109.94157589741431
35.467720759606806
143.7933282327814
201.88460693174457
53.24337342624402
73.58228635202006
45.94365399260926
0.0
0.0
0.0
0.0
0.0
0.0
0.0
0.0
0.0
0.0
0.0
0.0
0.0
41.37436396544865
61.54610774388954
61.96403061222738
14.4044081953784
32.15219933745974
14.683023440936964
0.41792286833784664
0.0
0.0
0.0
0.0
0.0
0.0
0.0
0.0
0.0
0.0
0.0
0.0
0.0
0.0
0.0
0.05572304911174629
30.396923290440732
28.00083217863698
3.817028864152533
10.61524085578174
0.0
0.0
0.0
0.0
0.0
0.0
0.0
0.0
0.0
0.0
0.0
0.0
0.0
0.0
0.0
0.0
0.0
0.0
0.0
0.0
0.0
0.0
0.0
0.0
0.0
0.0
0.0
0.0
0.0
0.0
0.0
0.0
0.0
0.0
0.0
0.0
0.0
0.0
0.0
0.0
0.0
0.0
0.0
0.0
0.0
0.0
0.0
0.0
0.0
0.0
0.0
0.0
0.0
0.0
0.0
0.0
0.0
0.0
0.0
0.0
0.0
0.0
0.0
0.0
0.0
0.0
0.0
0.0
0.0
0.0
0.0
0.0
0.0
0.0
0.0
0.0
0.0
0.0
0.0
0.0
0.0
0.0
0.0
0.0
0.0
0.0
0.0
0.0
0.0
0.0
0.0
0.0
0.0
0.0
0.0
0.0
0.0
0.0
0.0
0.0
0.0
0.0
0.0
0.0
0.0
0.0
0.0
0.0
0.0
0.0
0.0
0.0
0.0
0.0
0.0
0.0
0.0
0.0
0.0
0.0
0.0
2.3960911118037544
0.0
6.436012172403105
71.5483950594425
10.893856101340303
0.0
0.0
0.0
0.0
0.0
0.0
0.0
0.0
0.0
0.0
0.0
0.0
0.0
0.0
48.61836034997158
54.692172703148586
16.96766845451731
87.90310997373092
95.73219837392693
160.98388888374552
31.678553420010147
7.856949924751884
0.0
0.0
0.0
0.0
0.0
0.0
0.0
0.0
0.0
0.0
0.0
0.0
11.9525940344629
27.192847966517075
140.143468515964
214.5058775555481
151.12090919097196
61.79686146489232
117.29701838016072
58.78781681285968
25.465433444053858
0.0
0.0
0.0
0.0
0.0
0.0
0.0
0.0
0.0
0.0
0.0
0.0
31.12132292889302
74.61316276058677
238.13245037891542
117.74280277305444
115.29098861213893
33.15521422147059
56.224556553720774
122.14492365287997
9.584364447215018
18.22143705953093
0.0
0.0
0.0
0.0
0.0
0.0
0.0
0.0
0.0
0.0
0.0
0.0
2.841875504697474
137.19014691304312
117.40846447838412
151.5109705347539
112.61628225477662
62.01975366133913
126.18484471347934
149.44921771762046
75.67190069370938
7.355442482746419
0.0
0.0
0.0
0.0
0.0
0.0
0.0
0.0
0.0
17.692068092969592
64.69446001870145
68.81796565296843
122.06133907921235
158.5320747228301
133.8189024417843
84.61545007613972
167.8099623999307
129.55608918473814
52.60255836145927
193.69331871232245
54.63644965403684
33.23879879513821
0.0
0.0
0.0
0.0
0.0
0.0
0.0
0.0
22.34494269379782
81.18848255576924
75.0589471534805
195.39287171022974
140.0320224177406
136.46574727459083
208.9892956934883
90.77284700298426
171.62699126408313
55.86235673449459
185.3069998210092
10.253041036555638
3.5384136185938853
0.0
0.0
0.0
0.0
0.0
0.0
0.0
0.0
34.49256740015175
40.6221028024405
8.247011268533859
96.62376715971436
266.8019591468929
96.45659801237922
170.73542247829567
126.32415233625862
136.80008556926106
58.11914022351907
64.24867562580773
1.281630129569413
0.0
0.0
0.0
0.0
0.0
0.0
0.0
0.0
1.3930762277929056
33.46169099158502
90.41064718375807
91.02360072398696
160.09232009795807
233.36812967986367
127.18785959749019
166.4726092212495
127.02069045015503
80.38049834364934
233.64674492542235
39.340472672871
7.411165531858165
0.0
0.0
0.0
0.0
0.0
0.0
0.0
0.0
17.803514191193003
38.170288641525
160.78885821185457
86.09211087760016
58.481340042745245
81.32779017854854
109.02214558707098
50.23432877421139
125.01466068213333
109.07786863618274
92.19378475533297
39.089718951868306
24.43455703548714
13.986485327040553
0.0
0.0
0.0
0.0
0.0
0.0
0.0
0.05572304911174629
14.29296209715499
43.157501537023535
122.64643109488544
112.58842073022075
183.7188929213254
131.144196084422
21.536958481678
191.5479813215214
60.96101572821654
214.78449280110667
141.898744562983
181.12777113763062
0.0
0.0
0.0
0.0
0.0
0.0
0.0
0.0
0.0
50.65225164254924
23.15292690591772
57.812663453404625
123.2872461596701
113.73074323701096
210.68884869139555
259.30720904136723
165.38600976357105
114.98451184202459
15.323838505721712
33.573137089808434
26.858509671846765
0.0
0.0
0.0
0.0
0.0
0.0
0.0
0.0
0.0
20.394635974887787
0.1950306718910285
6.770350467073417
188.8454134396032
161.1231965065248
136.6607779464818
151.06518614186018
56.503171799279336
75.92265441471214
55.388710817045
5.48872033750392
0.9472918348991859
0.0
0.0
0.0
0.0
0.0
0.0
0.0
0.0
0.0
0.0
0.0
55.55587996438015
156.0802605619146
60.43164676165528
94.144091474243
146.88595745848153
153.851338597446
129.58395070929393
42.043040554789194
108.88283796429171
23.738018921590726
0.0
0.0
0.0
0.0
0.0
0.0
0.0
0.0
0.0
0.0
25.994802410615197
154.88221500601273
77.95654570728972
91.41366206776893
26.412725278953047
142.5116981032119
221.35981259628903
52.15677396856555
19.698097860991375
102.75330256200304
7.1325502862996
0.0
0.0
0.0
0.0
0.0
0.0
0.0
0.0
0.0
0.0
5.711612533950821
49.70495980765005
89.24046315241209
9.445056824435737
0.027861524555873145
29.505354504653294
26.997817294626046
33.04376812324718
15.686038324947898
0.0
0.0
0.0
0.0
0.0
0.0
0.0
0.0
0.0
0.0
0.0
0.0
0.0
11.980455559018772
17.27414522463175
0.0
9.974425790997076
0.0
2.061752817133444
29.6168006028767
5.01507442005441
0.0
0.0
0.0
0.0
0.0
0.0
0.0
0.0
0.0
0.0
0.0
0.0
0.0
0.0
0.0
0.0
0.3064767701144376
0.0
0.0
0.0
0.0
0.0
0.0
0.0
0.0
0.0
0.0
0.0
0.0
0.0
0.0
0.0
0.0
0.0
0.0
0.0
0.0
0.0
0.0
0.0
0.0
0.0
0.0
0.0
0.0
0.0
0.0
0.0
0.0
0.0
0.0
0.0
0.0
0.0
0.0
0.0
0.0
0.0
0.0
0.0
0.0
0.0
0.0
0.0
0.0
0.0
0.0
0.0
0.0
0.0
0.0
0.0
0.0
0.0
0.0
0.0
0.0
0.0
0.0
0.0
0.0
0.0
0.0
0.0
0.0
0.0
0.0
0.0
0.0
0.0
0.0
0.0
0.0
0.0
0.0
0.0
0.0
2.089614341689317
0.5293689665612556
0.0
6.408150647847233
5.349412714724638
0.0
0.0
0.0
0.0
0.0
0.0
0.0
0.0
0.0
0.0
0.0
0.0
0.0
0.0
0.0
0.0
9.695810545438427
28.780954866200926
69.096580898527
71.01902609288115
46.138684664500296
55.750910636271186
3.426967520370476
0.0
0.0
0.0
0.0
0.0
0.0
0.0
0.0
0.0
0.0
0.0
0.0
0.0
0.0
3.928474962375942
68.81796565296843
80.93772883476649
56.837510093949646
70.6011032245433
44.10479337192263
14.989500211051402
3.426967520370476
0.7522611630081574
0.0
0.0
0.0
0.0
0.0
0.0
0.0
0.0
0.0
0.0
0.1950306718910285
74.13951684313719
14.710884965492838
130.3083503477463
109.24503778351789
142.40025200498846
186.19856860679667
178.36948020660074
169.7602691188407
79.79540632797635
28.50233962064236
0.0
0.0
0.0
0.0
0.0
0.0
0.0
0.0
0.0
0.0
0.0
46.36157686094711
106.7932236226024
192.32810400908542
99.77211943452629
127.77295161316319
127.60578246582803
103.11550238122923
96.0108136194855
99.32633504163256
86.81651051605245
31.45566122356333
0.0
0.0
0.0
0.0
0.0
0.0
0.0
0.0
0.0
0.0
22.289219644686156
19.280174992653524
128.1908744815011
140.7006990070811
160.2873507698491
90.88429310120769
118.55078698517434
105.56731654214465
152.62543151698824
82.27508201344763
64.387983248587
1.0030148840108486
0.0
0.0
0.0
0.0
0.0
0.0
0.0
2.089614341689317
21.759850678124817
10.698825429449359
94.06050690057546
174.49672829333647
184.47115408433356
99.46564266441185
71.68770268222177
144.18338957656337
136.01996288169704
140.47780681063432
173.9673593267752
8.748518710539324
13.373531786811677
0.0
0.0
0.0
0.0
0.0
0.0
0.0
36.33142802083837
65.78105947637991
62.96704549623832
126.04553709070004
97.04169002805222
154.88221500601273
92.77887677100595
226.4306100654552
209.99231057749915
104.84291690369236
106.96039276993754
141.4808216946452
28.975985538091955
19.36375956632106
0.0
0.0
0.0
0.0
0.0
0.0
0.0
8.609211087760041
80.85414426109895
107.851961555725
8.19128821942211
100.58010364664611
236.4050358564522
110.1644680938612
209.29577246360273
88.46034046484804
149.00343332472673
119.0801559517356
178.00728038737455
36.05281277527981
0.0
0.0
0.0
0.0
0.0
0.0
0.0
0.6129535402288752
6.575319795182388
19.22445194354178
109.18931473440614
32.82087592680036
159.92515095062294
138.66680771450356
131.2556421826454
99.52136571352351
169.14731557861182
134.98908647313033
92.86246134467358
80.46408291731687
4.012059536043478
0.0
0.0
0.0
0.0
0.0
0.0
0.0
0.027861524555873145
40.510656704217006
22.707142513024003
186.50504537691114
141.84302151387135
208.2927575795918
159.0057206402796
128.55307430072722
124.06736884723414
163.2128108482141
202.4418374228617
138.8618383863946
59.98586236876156
72.66285604167675
0.8079842121199037
0.0
0.0
0.0
0.0
0.0
0.0
38.42104236252769
7.550473154637447
8.079842121198702
72.71857909078848
105.59517806670051
84.83834227258654
154.49215366223072
123.03649243866741
115.3467116612507
182.5487088899794
163.18494932365832
224.95394926399467
149.1706024720619
221.38767412084493
1.3094916541252861
0.0
0.0
0.0
0.0
0.0
0.0
28.92026248898021
65.97609014827094
32.82087592680036
8.804241759650987
41.095748719890004
59.790831696870534
87.01154118794348
184.63832323166872
203.66774450331945
225.76193347611456
105.9573778859267
74.44599361325162
21.48123543256625
116.46117264348503
0.3900613437819735
0.0
0.0
0.0
0.0
0.0
0.0
0.0
0.0
6.519596746070725
0.08358457366753592
23.041480807694313
103.78417897056976
51.933881772118646
50.45722097065821
132.73230298410584
118.46720241150672
57.2554329622875
52.07318939489793
12.314793853689082
22.93003470947082
15.686038324947898
0.0
0.0
0.0
0.0
0.0
0.0
0.0
0.0
20.255328352108503
16.549745586179462
46.19440771361195
127.94012076049835
66.47759759027633
156.13598361102635
169.92743826617587
168.7015311857181
135.01694799768617
145.38143513246524
69.34733461952968
18.945836697983218
2.3403680626920083
0.0
0.0
0.0
0.0
0.0
0.0
0.0
0.0
0.0
75.11467020259225
185.5856150665679
58.84353986197135
112.17049786188291
175.75049689835012
196.75808641346677
172.43497547620302
139.72554564762618
74.36240903958408
71.38122591210734
46.44516143461473
0.0
0.0
0.0
0.0
0.0
0.0
0.0
0.0
0.0
0.0
28.418755046974823
97.15313612627563
19.8931285328824
139.4747919266234
105.65090111581226
93.61472250768173
94.9520756863629
7.968396022975293
5.544443386615666
0.0
0.0
0.0
0.0
0.0
0.0
0.0
0.0
0.0
0.0
0.0
0.0
1.5881068996838508
40.03701078676741
59.87441627053807
49.62137523398251
40.67782585155216
0.0
31.762137993677765
9.835118168217791
9.584364447215018
0.0
0.0
0.0
0.0
0.0
0.0
0.0
0.0
0.0
0.0
0.0
0.0
0.0
0.0
2.061752817133444
0.0
0.08358457366753592
0.0
0.0
0.0
0.0
0.0
0.0
0.0
0.0
0.0
0.0
0.0
0.0
0.0
0.0
0.0
0.0
0.0
0.0
0.0
0.0
0.0
0.0
0.0
0.0
0.0
0.0
0.0
0.0
0.0
0.0
0.0
0.0
0.0
0.0
0.0
0.0
0.0
0.0
0.0
0.0
0.0
0.0
0.0
0.0
0.0
0.0
0.0
0.0
0.0
0.0
0.0
0.0
0.0
0.0
0.0
0.0
0.0
0.0
0.0
0.0
0.0
0.0
0.0
0.0
0.0
0.0
0.0
0.0
0.0
0.0
0.0
0.0
0.0
0.0
0.0
0.0
0.0
0.0
0.0
0.0
7.773365351084265
49.53779066031489
67.31344332695211
51.293066707333985
2.145337390801063
3.176213799367785
0.0
0.0
0.0
0.0
0.0
0.0
0.0
0.0
0.0
0.0
0.0
0.0
0.0
0.0
0.0
68.81796565296843
96.03867514404136
14.65516191638109
1.9781682434659078
45.27497740326873
94.56201434258085
94.70132196536021
1.3652147032370325
0.0
0.0
0.0
0.0
0.0
0.0
0.0
0.0
0.0
0.0
0.0
0.0
4.875766797275128
88.8782633331859
177.03212702791953
120.7239859005312
99.57708876263526
76.89780777416712
123.56586140522867
89.43549382430311
44.43913166659295
5.572304911171539
0.0
0.0
0.0
0.0
0.0
0.0
0.0
0.0
0.0
0.0
57.06040229039647
15.686038324947898
106.15240855781764
122.08920060376823
213.3356935242021
163.29639542188173
166.11040940202335
44.021208798255095
126.99282892559921
120.97473962153397
92.63956914822668
22.846450135803284
0.0
0.0
0.0
0.0
0.0
0.0
0.0
0.0
0.0
9.3614722507682
0.0
92.47240000089153
62.8555993980149
124.29026104368104
68.90155022663596
140.11560699140813
52.04532787034214
85.20054209181272
131.33922675631302
77.26000759339331
47.866099186963424
0.0
0.0
0.0
0.0
0.0
0.0
0.0
0.0
0.0
0.0
26.301279180729637
160.42665839262838
166.75122446680808
212.7506015085291
124.01164579812239
162.7113034062087
71.60411810855415
203.5005753559843
165.0795329934566
141.75943694020373
78.15157637918075
2.6189833082506557
0.0
0.0
0.0
0.0
0.0
0.0
0.0
0.7522611630081574
13.262085688588268
95.50930617748003
61.016738777328285
133.87462549089605
116.87909551182288
101.49953395698941
144.5734509203454
30.75912310966683
125.01466068213333
141.7872984647596
136.88367014292868
61.21176944921923
20.67325122044635
0.27861524555856443
0.0
0.0
0.0
0.0
0.0
0.0
0.6408150647847483
107.93554612939253
17.608483519302055
97.87753576472791
160.31521229440497
197.06456318358119
183.05021633198479
206.14742018879085
189.98773594639334
89.32404772607961
125.54402964869458
127.35502874482533
45.414285026048006
59.40077035308856
0.22289219644690164
0.0
0.0
0.0
0.0
0.0
0.0
10.113733413776357
43.65900897902892
31.650691895454273
91.58083121510408
137.83096197782777
229.74613148760227
187.28516806447516
125.6276142223622
172.96434444276437
58.53706309185691
94.729183489916
75.25397782537152
24.016634167149288
15.43528460394512
0.0
0.0
0.0
0.0
0.0
0.0
0.0
14.348685146266652
99.1591658942974
92.7231537218943
26.189833082506226
161.3182271784158
204.75434396099791
144.40628177301025
161.20678108019243
155.43944549712987