/*--------------------------------*- C++ -*----------------------------------*\
| =========                 |                                                 |
| \\      /  F ield         | OpenFOAM: The Open Source CFD Toolbox           |
|  \\    /   O peration     | Version:  2.4.0                                 |
|   \\  /    A nd           | Web:      www.OpenFOAM.org                      |
|    \\/     M anipulation  |                                                 |
\*---------------------------------------------------------------------------*/
FoamFile
{
    version     2.0;
    format      ascii;
    class       volScalarField;
    location    "86400/air";
    object      Qr;
}
// * * * * * * * * * * * * * * * * * * * * * * * * * * * * * * * * * * * * * //

dimensions      [1 0 -3 0 0 0 0];

internalField   uniform 0;

boundaryField
{
    inlet
    {
        type            greyDiffusiveRadiationViewFactor;
        emissivityMode  lookup;
        emissivity      uniform 1;
        Qro             uniform 0;
        value           uniform 10;
    }
    outlet
    {
        type            greyDiffusiveRadiationViewFactor;
        emissivityMode  lookup;
        emissivity      uniform 1;
        Qro             uniform 0;
        value           uniform 10;
    }
    sky
    {
        type            greyDiffusiveRadiationViewFactor;
        emissivityMode  lookup;
        emissivity      uniform 1;
        Qro             uniform 0;
        value           uniform 10;
    }
    ground
    {
        type            greyDiffusiveRadiationViewFactor;
        emissivityMode  lookup;
        emissivity      uniform 0.9;
        Qro             uniform 0;
        value           uniform 10;
    }
    cube1
    {
        type            greyDiffusiveRadiationViewFactor;
        emissivityMode  lookup;
        emissivity      uniform 0.9;
        Qro             uniform 0;
        value           uniform 10;
    }
    cube2
    {
        type            greyDiffusiveRadiationViewFactor;
        emissivityMode  lookup;
        emissivity      uniform 0.9;
        Qro             uniform 0;
        value           uniform 10;
    }
    front
    {
        type            symmetryPlane;
    }
    back
    {
        type            symmetryPlane;
    }
}


// ************************************************************************* //
