/*--------------------------------*- C++ -*----------------------------------*\
| =========                 |                                                 |
| \\      /  F ield         | OpenFOAM: The Open Source CFD Toolbox           |
|  \\    /   O peration     | Version:  2.3.1                                 |
|   \\  /    A nd           | Web:      www.OpenFOAM.org                      |
|    \\/     M anipulation  |                                                 |
\*---------------------------------------------------------------------------*/
FoamFile
{
    version     2.0;
    format      ascii;
    class       dictionary;
    location    "system";
    object      controlDict;
}
// * * * * * * * * * * * * * * * * * * * * * * * * * * * * * * * * * * * * * //

libs            (
				             "libgroovyBC.so"
                     "libporousIncompressibleRASModels.so"
                );

application     simplifiedVegetation;

startFrom       latestTime;

startTime       0;

stopAt          endTime;

endTime         10;

deltaT          1;

writeControl    timeStep;

writeInterval   1;

purgeWrite      1;

writeFormat     ascii;

writePrecision  12;

writeCompression on;

timeFormat      general;

timePrecision   10;

runTimeModifiable true;


// ************************************************************************* //
