/*--------------------------------*- C++ -*----------------------------------*\
| =========                 |                                                 |
| \\      /  F ield         | OpenFOAM: The Open Source CFD Toolbox           |
|  \\    /   O peration     | Version:  2.3.1                                 |
|   \\  /    A nd           | Web:      www.OpenFOAM.org                      |
|    \\/     M anipulation  |                                                 |
\*---------------------------------------------------------------------------*/
FoamFile
{
    version     2.0;
    format      ascii;
    class       dictionary;
    location    "constant";
    object      flowProperties;
}
// * * * * * * * * * * * * * * * * * * * * * * * * * * * * * * * * * * * * * //

// Fluid Parameters
flowVelocity    (1 0 0);    // m/s

pressure        0;          // kg/(m*s^2)

z0              0.0217;      // m/s

rho             1.225;      // kg/m^3

ustar           0.10644067528497568; // m/s

turbulentKE     0.037765391183738777; // m^2/s^2

turbulentEpsilon 0.002878827305995332; // m^2/s^3 // at h

kappa           0.41;

Cmu             0.09;

E               9.8;

// ************************************************************************* //
