/*--------------------------------*- C++ -*----------------------------------*\
| =========                 |                                                 |
| \\      /  F ield         | OpenFOAM: The Open Source CFD Toolbox           |
|  \\    /   O peration     | Version:  2.3.1                                 |
|   \\  /    A nd           | Web:      www.OpenFOAM.org                      |
|    \\/     M anipulation  |                                                 |
\*---------------------------------------------------------------------------*/
FoamFile
{
    version     2.0;
    format      ascii;
    class       dictionary;
    location    "constant";
    object      transportProperties;
}
// * * * * * * * * * * * * * * * * * * * * * * * * * * * * * * * * * * * * * //

transportModel      Newtonian;

// Laminar viscosity of air
nu                  nu [ 0 2 -1 0 0 0 0 ] 1.45e-5;

// Thermal expansion coefficient
beta                beta [0 0 0 -1 0 0 0] 3e-03;

// Reference temperature
TRef                TRef [0 0 0 1 0 0 0] 303.15;//303;//292.44;

// Reference humidity ratio kg_w/kg_da
wRef                wRef [0 0 0 0 0 0 0] 0.0160409;//303;//292.44;

// Laminar Prandtl number
Pr                  Pr [0 0 0 0 0 0 0] 0.7;

// Turbulent Prandtl number
Prt                 Prt [0 0 0 0 0 0 0] 0.9;

// Laminar Schmidt number
Sc                  Sc [0 0 0 0 0 0 0] 0.7;

// Turbulent Schmidt number
Sct                 Sct [0 0 0 0 0 0 0] 0.9;

// specific heat of air at constant pressure
Cp                 Cp [0 2 -2 -1 0 0 0] 1003.5;

Cpa                Cpa [0 2 -2 -1 0 0 0] 1003.5;

Cpv                Cpv [0 2 -2 -1 0 0 0] 1860;

lambda             lambda  [ 0 2 -2 0 0 0 0 ] 2500000; // latent heat of vaporization of water J/Kg

rho                rho    [1 -3 0 0 0 0 0 ] 1.225; // density of air

p                 p [1 -1 -2 0 0 0 0] 101325; // std pressure

// ************************************************************************* //
