
/*--------------------------------*- C++ -*----------------------------------*\
| =========                 |                                                 |
| \\      /  F ield         | OpenFOAM: The Open Source CFD Toolbox           |
|  \\    /   O peration     | Version:  2.4.1                                 |
|   \\  /    A nd           | Web:      www.OpenFOAM.org                      |
|    \\/     M anipulation  |                                                 |
\*---------------------------------------------------------------------------*/
FoamFile
{
    version     2.0;
    format      ascii;
    class       dictionary;
    object      blockMeshDict;
}
// * * * * * * * * * * * * * * * * * * * * * * * * * * * * * * * * * * * * * //

convertToMeters 1;

vertices
(
		(-50 -50 0) // vertex #0
		(-15 -50 0) // vertex #1
		(-5 -50 0) // vertex #2
		(5 -50 0) // vertex #3
		(15 -50 0) // vertex #4
		(100 -50 0) // vertex #5
		(-50 -5 0) // vertex #6
		(-15 -5 0) // vertex #7
		(-5 -5 0) // vertex #8
		(5 -5 0) // vertex #9
		(15 -5 0) // vertex #10
		(100 -5 0) // vertex #11
		(-50 5 0) // vertex #12
		(-15 5 0) // vertex #13
		(-5 5 0) // vertex #14
		(5 5 0) // vertex #15
		(15 5 0) // vertex #16
		(100 5 0) // vertex #17
		(-50 50 0) // vertex #18
		(-15 50 0) // vertex #19
		(-5 50 0) // vertex #20
		(5 50 0) // vertex #21
		(15 50 0) // vertex #22
		(100 50 0) // vertex #23
		(-50 -50 10) // vertex #24
		(-15 -50 10) // vertex #25
		(-5 -50 10) // vertex #26
		(5 -50 10) // vertex #27
		(15 -50 10) // vertex #28
		(100 -50 10) // vertex #29
		(-50 -5 10) // vertex #30
		(-15 -5 10) // vertex #31
		(-5 -5 10) // vertex #32
		(5 -5 10) // vertex #33
		(15 -5 10) // vertex #34
		(100 -5 10) // vertex #35
		(-50 5 10) // vertex #36
		(-15 5 10) // vertex #37
		(-5 5 10) // vertex #38
		(5 5 10) // vertex #39
		(15 5 10) // vertex #40
		(100 5 10) // vertex #41
		(-50 50 10) // vertex #42
		(-15 50 10) // vertex #43
		(-5 50 10) // vertex #44
		(5 50 10) // vertex #45
		(15 50 10) // vertex #46
		(100 50 10) // vertex #47
		(-50 -50 30) // vertex #48
		(-15 -50 30) // vertex #49
		(-5 -50 30) // vertex #50
		(5 -50 30) // vertex #51
		(15 -50 30) // vertex #52
		(100 -50 30) // vertex #53
		(-50 -5 30) // vertex #54
		(-15 -5 30) // vertex #55
		(-5 -5 30) // vertex #56
		(5 -5 30) // vertex #57
		(15 -5 30) // vertex #58
		(100 -5 30) // vertex #59
		(-50 5 30) // vertex #60
		(-15 5 30) // vertex #61
		(-5 5 30) // vertex #62
		(5 5 30) // vertex #63
		(15 5 30) // vertex #64
		(100 5 30) // vertex #65
		(-50 50 30) // vertex #66
		(-15 50 30) // vertex #67
		(-5 50 30) // vertex #68
		(5 50 30) // vertex #69
		(15 50 30) // vertex #70
		(100 50 30) // vertex #71
);

blocks
(
		hex (0 1 7 6 24 25 31 30)	(30 30 50) simpleGrading (0.05 0.05 -5) // block #0
		hex (1 2 8 7 25 26 32 31)	(30 30 50) simpleGrading (-5 0.05 -5) // block #1
		hex (2 3 9 8 26 27 33 32)	(50 30 50) simpleGrading (1 0.05 -5) // block #2
		hex (3 4 10 9 27 28 34 33)	(30 30 50) simpleGrading (-5 0.05 -5) // block #3
		hex (4 5 11 10 28 29 35 34)	(30 30 50) simpleGrading (20 0.05 -5) // block #4
		hex (6 7 13 12 30 31 37 36)	(30 50 50) simpleGrading (0.05 -2 -5) // block #5
		//		hex (7 8 14 13 31 32 38 37)	(30 50 50) simpleGrading (-5 -2 -5) // block #6
		hex (8 9 15 14 32 33 39 38)	(50 50 50) simpleGrading (1 -2 -5) // block #7
		//		hex (9 10 16 15 33 34 40 39)	(30 50 50) simpleGrading (-5 -2 -5) // block #8
		hex (10 11 17 16 34 35 41 40)	(30 50 50) simpleGrading (20 -2 -5) // block #9
		hex (12 13 19 18 36 37 43 42)	(30 30 50) simpleGrading (0.05 20 -5) // block #10
		hex (13 14 20 19 37 38 44 43)	(30 30 50) simpleGrading (-5 20 -5) // block #11
		hex (14 15 21 20 38 39 45 44)	(50 30 50) simpleGrading (1 20 -5) // block #12
		hex (15 16 22 21 39 40 46 45)	(30 30 50) simpleGrading (-5 20 -5) // block #13
		hex (16 17 23 22 40 41 47 46)	(30 30 50) simpleGrading (20 20 -5) // block #14
		hex (24 25 31 30 48 49 55 54)	(30 30 30) simpleGrading (0.05 0.05 20) // block #15
		hex (25 26 32 31 49 50 56 55)	(30 30 30) simpleGrading (-5 0.05 20) // block #16
		hex (26 27 33 32 50 51 57 56)	(50 30 30) simpleGrading (1 0.05 20) // block #17
		hex (27 28 34 33 51 52 58 57)	(30 30 30) simpleGrading (-5 0.05 20) // block #18
		hex (28 29 35 34 52 53 59 58)	(30 30 30) simpleGrading (20 0.05 20) // block #19
		hex (30 31 37 36 54 55 61 60)	(30 50 30) simpleGrading (0.05 -2 20) // block #20
		hex (31 32 38 37 55 56 62 61)	(30 50 30) simpleGrading (-5 -2 20) // block #21
		hex (32 33 39 38 56 57 63 62)	(50 50 30) simpleGrading (1 -2 20) // block #22
		hex (33 34 40 39 57 58 64 63)	(30 50 30) simpleGrading (-5 -2 20) // block #23
		hex (34 35 41 40 58 59 65 64)	(30 50 30) simpleGrading (20 -2 20) // block #24
		hex (36 37 43 42 60 61 67 66)	(30 30 30) simpleGrading (0.05 20 20) // block #25
		hex (37 38 44 43 61 62 68 67)	(30 30 30) simpleGrading (-5 20 20) // block #26
		hex (38 39 45 44 62 63 69 68)	(50 30 30) simpleGrading (1 20 20) // block #27
		hex (39 40 46 45 63 64 70 69)	(30 30 30) simpleGrading (-5 20 20) // block #28
		hex (40 41 47 46 64 65 71 70)	(30 30 30) simpleGrading (20 20 20) // block #29
);

edges
(
);

patches
(
		patch inlet
		(
				(0 6 30 24)
				(6 12 36 30)
				(12 18 42 36)
				(24 30 54 48)
				(30 36 60 54)
				(36 42 66 60)
		)
		patch outlet
		(
				(5 11 35 29)
				(11 17 41 35)
				(17 23 47 41)
				(29 35 59 53)
				(35 41 65 59)
				(41 47 71 65)
		)
		patch sky
		(
				(48 49 55 54)
				(49 50 56 55)
				(50 51 57 56)
				(51 52 58 57)
				(52 53 59 58)
				(54 55 61 60)
				(55 56 62 61)
				(56 57 63 62)
				(57 58 64 63)
				(58 59 65 64)
				(60 61 67 66)
				(61 62 68 67)
				(62 63 69 68)
				(63 64 70 69)
				(64 65 71 70)
		)
		wall ground
		(
				(0 1 7 6)
				(1 2 8 7)
				(2 3 9 8)
				(3 4 10 9)
				(4 5 11 10)
				(6 7 13 12)
				//				(7 8 14 13)
				(8 9 15 14)
				//				(9 10 16 15)
				(10 11 17 16)
				(12 13 19 18)
				(13 14 20 19)
				(14 15 21 20)
				(15 16 22 21)
				(16 17 23 22)
		)
		symmetryPlane front
		(
				(0 1 25 24)
				(1 2 26 25)
				(2 3 27 26)
				(3 4 28 27)
				(4 5 29 28)
				(24 25 49 48)
				(25 26 50 49)
				(26 27 51 50)
				(27 28 52 51)
				(28 29 53 52)
		)
		symmetryPlane back
		(
				(18 19 43 42)
				(19 20 44 43)
				(20 21 45 44)
				(21 22 46 45)
				(22 23 47 46)
				(42 43 67 66)
				(43 44 68 67)
				(44 45 69 68)
				(45 46 70 69)
				(46 47 71 70)
		)
		wall cube1
		(
				(7 13 37 31)
				(7 8 32 31)
				(8 14 38 32)
				(13 14 38 37)
				(31 32 38 37)
		)
		wall cube2
		(
				(9 15 39 33)
				(9 10 34 33)
				(10 16 40 34)
				(15 16 40 39)
				(33 34 40 39)
		)
);

mergePatchPairs
(
);
// * * * * * * * * * * * * * * * * * * * * * * * * * * * * * * * * * * * * * //
