/*--------------------------------*- C++ -*----------------------------------*\
| =========                 |                                                 |
| \\      /  F ield         | OpenFOAM: The Open Source CFD Toolbox           |
|  \\    /   O peration     | Version:  2.4.0                                 |
|   \\  /    A nd           | Web:      www.OpenFOAM.org                      |
|    \\/     M anipulation  |                                                 |
\*---------------------------------------------------------------------------*/
FoamFile
{
    version     2.0;
    format      ascii;
    class       dictionary;
    location    "system";
    object      funkySetFieldsDict;
}
// * * * * * * * * * * * * * * * * * * * * * * * * * * * * * * * * * * * * * //

expressions
(
    zone_LAD
    {
        field LAD;
        condition  "sqrt(1.5*pow(pos().x - 0.,2) + pow(0.6*pos().z - 1.,2)) <= 0.5";
        expression "10.0";
        keepPatches 1;
    }

    zone_cd
    {
        field cd;
        condition  "sqrt(1.5*pow(pos().x - 0.,2) + pow(0.6*pos().z - 1.,2)) <= 0.5";
        expression "0.2";
        keepPatches 1;
    }


/*
    foliage_LAD
    {
      field LAD;
      condition  "(pos().y>=-0.5) && (pos().y<=05) && (pos().x>=-0.5) && (pos().x<=0.5) && (pos().z>=0.5) && (pos().z<=1.5) ";
      expression "10";
      keepPatches 1;
    }

    zone_LAI
    {
        field LAI;
        condition  "(pos().y>=-0.5) && (pos().y<=0.5) && (pos().x>=-0.5) && (pos().x<=0.5) && (pos().z>=0.5) && (pos().z<=1.5) ";
        expression "10*(1.5-pos().z)";
        keepPatches 1;
    }

    zone_LAI_below
    {
        field LAI;
        condition  "(pos().y>=-0.5) && (pos().y<=0.5) && (pos().x>=-0.5) && (pos().x<=0.5) && (pos().z>=0.) && (pos().z<=0.5) ";
        expression "10";
        keepPatches 1;
    }


    zone_cd_plant
    {
        field cd;
        condition  "(pos().y>=-0.5) && (pos().y<=0.5) && (pos().x>=-0.5) && (pos().x<=0.5) && (pos().z>=0.5) && (pos().z<1.5) ";
        expression "0.2";
        keepPatches 1;
    }

*/

);

// ************************************************************************* //
