/*--------------------------------*- C++ -*----------------------------------*\
| =========                 |                                                 |
| \\      /  F ield         | OpenFOAM: The Open Source CFD Toolbox           |
|  \\    /   O peration     | Version:  2.3.1                                 |
|   \\  /    A nd           | Web:      www.OpenFOAM.org                      |
|    \\/     M anipulation  |                                                 |
\*---------------------------------------------------------------------------*/
FoamFile
{
    version     2.0;
    format      ascii;
    class       dictionary;
    location    "system";
    object      fvSolution;
}
// * * * * * * * * * * * * * * * * * * * * * * * * * * * * * * * * * * * * * //

solvers
{

    p_rgh
    {
        solver          PCG;
        preconditioner  DIC;
        tolerance       1e-12;
        relTol          0.01;
    }

    "(U|T|q|k|epsilon|R)"
    {
        solver          PBiCG;
        preconditioner  DILU;
        tolerance       1e-10;
        relTol          0.01;
    }

}

SIMPLE
{
    nNonOrthogonalCorrectors 0;
    pRefCell        0;
    pRefValue       0;

    residualControl
    {
        p_rgh           1e-10;
        U               1e-10;
        "(k|epsilon)"   1e-10;
        T               1e-10;
        q               1e-10;
    }
}

relaxationFactors
{
    fields
    {
        p               0.7;//0.3
    }
    equations
    {
        U               0.3;//0.7
        k               0.7;//0.7
        epsilon         0.7;
        T               0.5;//0.7
        q               0.5;//0.7
    }
}

// EXTRA ADDED
cache
{
    grad(U);
}

// ************************************************************************* //
