/*--------------------------------*- C++ -*----------------------------------*\
| =========                 |                                                 |
| \\      /  F ield         | OpenFOAM: The Open Source CFD Toolbox           |
|  \\    /   O peration     | Version:  2.3.0                                 |
|   \\  /    A nd           | Web:      www.OpenFOAM.org                      |
|    \\/     M anipulation  |                                                 |
\*---------------------------------------------------------------------------*/
FoamFile
{
    version     2.0;
    format      ascii;
    class       dictionary;
    location    "system";
    object      topoSetDict;
}
// * * * * * * * * * * * * * * * * * * * * * * * * * * * * * * * * * * * * * //

actions
(
    {
        name    table;
        type    faceSet;
        action  new;
        source  boxToFace;
        sourceInfo
        {
            box (-1.58 -0.51 0.799)(1.58 0.51 0.801);
        }
    }

    {
        name    table;
        type    faceZoneSet;
        action  new;
        source  setToFaceZone;
        sourceInfo
        {
            faceSet table;
        }
    }

    {
        name    table;
        type    faceSet;
        action  delete;
        source  boxToFace;
        sourceInfo
        {
            box (-1.58 -0.51 0.799)(1.58 0.51 0.801);
        }
    }

);

// ************************************************************************* //
