/*--------------------------------*- C++ -*----------------------------------*\
| =========                 |                                                 |
| \\      /  F ield         | OpenFOAM: The Open Source CFD Toolbox           |
|  \\    /   O peration     | Version:  2.2.2                                 |
|   \\  /    A nd           | Web:      www.OpenFOAM.org                      |
|    \\/     M anipulation  |                                                 |
\*---------------------------------------------------------------------------*/
FoamFile
{
    version     2.0;
    format      ascii;
    class       scalarList;
    location    "constant";
    object      Ed;
}
// * * * * * * * * * * * * * * * * * * * * * * * * * * * * * * * * * * * * * //


144
(
0
0
0
0
0
0
0
0
0
0
0
0
0
0
0
0
0
0
0
0
0
0
0
0
0
0
0
0
1.09084268420241e-05
0.567713490003087
5.31060353557864
13.9151213962329
23.7713670182597
33.4073143365768
42.2548750144290
50.1678024890274
57.1708382378482
63.3492714780878
68.8028181658055
73.6273666404622
77.9086174160359
81.7207044498795
85.1267966941423
88.1803791784572
90.9266613492509
93.4038923318876
95.6445092889640
97.6761079479264
99.5222494277647
101.203125600172
102.736105998804
104.136187169891
105.416362343673
106.587926267966
107.660727322296
108.643376721410
109.543422714150
110.367496140993
111.121432473769
111.810374468977
112.438858773488
113.010889187887
113.529998785504
113.999302678119
114.421542891511
114.799126549058
115.134158346424
115.428468124872
115.683634206649
115.901003036954
116.081705577973
116.226670817344
116.336636682838
116.412158594360
116.453615831313
116.461215846128
116.434996611696
116.374827050134
116.280405551532
116.151256552794
115.986725107225
115.785969333854
115.547950590297
115.271421162758
114.954909209726
114.596700630129
114.194817449581
113.746992226944
113.250637873983
112.702812148874
112.100175923773
111.438944130495
110.714828047192
109.922967291153
109.057849513746
108.113215334188
107.081945475799
105.955926351738
104.725889450366
103.381218748396
101.909718980635
100.297335861052
98.5278172273936
96.5823015406599
94.4388172512639
92.0716734523547
89.4507195582045
86.5404508593655
83.2989408280530
79.6765967715599
75.6147775938881
71.0444131422442
65.8849947962849
60.0448260591582
53.4245960294729
45.9290241323027
37.4975360045436
28.1792258727139
18.3079747809159
8.87618738921780
2.05559351366297
0.0230774451200866
0
0
0
0
0
0
0
0
0
0
0
0
0
0
0
0
0
0
0
0
0
0
)


// ************************************************************************* //
