/*--------------------------------*- C++ -*----------------------------------*\
| =========                 |                                                 |
| \\      /  F ield         | OpenFOAM: The Open Source CFD Toolbox           |
|  \\    /   O peration     | Version:  2.1.x                                 |
|   \\  /    A nd           | Web:      www.OpenFOAM.org                      |
|    \\/     M anipulation  |                                                 |
\*---------------------------------------------------------------------------*/
FoamFile
{
    version     2.0;
    format      ascii;
    class       dictionary;
    object      setFieldsDict;
}
// * * * * * * * * * * * * * * * * * * * * * * * * * * * * * * * * * * * * * //

defaultFieldValues
(
    volScalarFieldValue Cf 0
    volScalarFieldValue Tl 0
    volScalarFieldValue LAI 0
    volScalarFieldValue LAD 0
);

regions
(
    // Set cell values
    // (does zerogradient on boundaries)
    boxToCell
    {
        box (64 4 120)(66 8 130);

        fieldValues
        (
            volScalarFieldValue Cf 2
	    volScalarFieldValue Tl 300
	    volScalarFieldValue LAI 10
	    volScalarFieldValue LAD 10	
        );
    }
);

// ************************************************************************* //

