/*--------------------------------*- C++ -*----------------------------------*\
| =========                 |                                                 |
| \\      /  F ield         | OpenFOAM: The Open Source CFD Toolbox           |
|  \\    /   O peration     | Version:  2.3.0                                 |
|   \\  /    A nd           | Web:      www.OpenFOAM.org                      |
|    \\/     M anipulation  |                                                 |
\*---------------------------------------------------------------------------*/
FoamFile
{
    version     2.0;
    format      ascii;
    class       volScalarField;
    object      q;
}
// * * * * * * * * * * * * * * * * * * * * * * * * * * * * * * * * * * * * * //

// #include        "../constant/flowProperties"

dimensions      [0 0 0 0 0 0 0];

internalField   uniform 0.0160409;//@T=30deg, Rh=20: 0.00525658 // 40: 0.0106028 // 60: 0.0160409 // 0.0215733

boundaryField
{
    inlet
    {
	       type            fixedValue;
         value           uniform 0.0160409;//0.00621;
    }

    outlet
    {
	       type            zeroGradient;
    }

    sky
    {
          type            zeroGradient;
    }

    ground
    {
          type            zeroGradient;
    }

    frontAndBack
    {
          type            empty;
    }
}


// ************************************************************************* //
