/*--------------------------------*- C++ -*----------------------------------*\
| =========                 |                                                 |
| \\      /  F ield         | OpenFOAM: The Open Source CFD Toolbox           |
|  \\    /   O peration     | Version:  2.4.0                                 |
|   \\  /    A nd           | Web:      www.OpenFOAM.org                      |
|    \\/     M anipulation  |                                                 |
\*---------------------------------------------------------------------------*/
FoamFile
{
    version     2.0;
    format      ascii;
    class       dictionary;
    location    "system";
    object      funkySetFieldsDict;
}
// * * * * * * * * * * * * * * * * * * * * * * * * * * * * * * * * * * * * * //

expressions
(
    zone_LAD
    {
        field LAD;
        condition  "sqrt(pow(pos().x - 10.,2) + pow(pos().y - 0.,2) + pow(pos().z - 7.5,2)) <= 2.5";
        expression "10.0";
        keepPatches 1;
    }

    /*
    zone_LAD2
    {
        field LAD;
        condition  "(pos().x >=  - 10.) && (pos().x <=  - 7.) && (pos().z <=  10.) && (pos().z >=  5.) && (pos().y >=  -5.) && (pos().y <=  5.)";
        expression "10.0";
        keepPatches 1;
    }
    */

    zone_cd
    {
        field cd;
        condition  "sqrt(pow(pos().x - 10.,2) + pow(pos().y - 0.,2) + pow(pos().z - 7.5,2)) <= 2.5";
        expression "0.2";
        keepPatches 1;
    }


);

// ************************************************************************* //
